/*---------------------------------------------------------------------------*\
  =========                 |
  \\      /  F ield         | OpenFOAM: The Open Source CFD Toolbox
   \\    /   O peration     | Website:  https://openfoam.org
    \\  /    A nd           | Version:  10
     \\/     M anipulation  |
\*---------------------------------------------------------------------------*/
Build  : 10-2c6a80318abb
Exec   : /opt/openfoam10/platforms/linux64GccDPInt32Opt/bin/simpleFoam
Date   : Aug 16 2022
Time   : 17:30:48
Host   : "9e8098b4d3c3"
PID    : 2372
I/O    : uncollated
Case   : /home/openfoam/exp_roomWT/nv_windAroundBuildings2
nProcs : 1
sigFpe : Enabling floating point exception trapping (FOAM_SIGFPE).
fileModificationChecking : Monitoring run-time modified files using timeStampMaster (fileModificationSkew 10)
allowSystemOperations : Allowing user-supplied system call operations

// * * * * * * * * * * * * * * * * * * * * * * * * * * * * * * * * * * * * * //
Create time

Create mesh for time = 0


SIMPLE: Convergence criteria found
        p: tolerance 0.0001
        U: tolerance 0.0001
        "(k|omega|epsilon)": tolerance 0.0001

Reading field p

Reading field U

Reading/calculating face flux field phi

Selecting viscosity model constant
Selecting turbulence model type RAS
Selecting RAS turbulence model kEpsilon
RAS
{
    model           kEpsilon;
    turbulence      on;
    printCoeffs     on;
    Cmu             0.09;
    C1              1.44;
    C2              1.92;
    C3              0;
    sigmak          1;
    sigmaEps        1.3;
}

No MRF models present

No fvModels present
No fvConstraints present

Starting time loop

Time = 0.01s

smoothSolver:  Solving for Ux, Initial residual = 1, Final residual = 0.0795281, No Iterations 2
smoothSolver:  Solving for Uy, Initial residual = 0, Final residual = 0, No Iterations 0
smoothSolver:  Solving for Uz, Initial residual = 0, Final residual = 0, No Iterations 0
GAMG:  Solving for p, Initial residual = 1, Final residual = nan, No Iterations 1000
time step continuity errors : sum local = nan, global = -nan, cumulative = -nan
smoothSolver:  Solving for epsilon, Initial residual = nan, Final residual = nan, No Iterations 1000
smoothSolver:  Solving for k, Initial residual = nan, Final residual = nan, No Iterations 1000
ExecutionTime = 40.6083 s  ClockTime = 41 s

Time = 0.02s

smoothSolver:  Solving for Ux, Initial residual = nan, Final residual = nan, No Iterations 1000
smoothSolver:  Solving for Uy, Initial residual = nan, Final residual = nan, No Iterations 1000
smoothSolver:  Solving for Uz, Initial residual = nan, Final residual = nan, No Iterations 1000
GAMG:  Solving for p, Initial residual = nan, Final residual = nan, No Iterations 1000
time step continuity errors : sum local = nan, global = nan, cumulative = nan
smoothSolver:  Solving for epsilon, Initial residual = nan, Final residual = nan, No Iterations 1000
smoothSolver:  Solving for k, Initial residual = nan, Final residual = nan, No Iterations 1000
ExecutionTime = 98.0066 s  ClockTime = 98 s

Time = 0.03s

smoothSolver:  Solving for Ux, Initial residual = nan, Final residual = nan, No Iterations 1000
smoothSolver:  Solving for Uy, Initial residual = nan, Final residual = nan, No Iterations 1000
smoothSolver:  Solving for Uz, Initial residual = nan, Final residual = nan, No Iterations 1000
GAMG:  Solving for p, Initial residual = nan, Final residual = nan, No Iterations 1000
time step continuity errors : sum local = nan, global = nan, cumulative = nan
smoothSolver:  Solving for epsilon, Initial residual = nan, Final residual = nan, No Iterations 1000
smoothSolver:  Solving for k, Initial residual = nan, Final residual = nan, No Iterations 1000
ExecutionTime = 195.557 s  ClockTime = 731 s

Time = 0.04s

smoothSolver:  Solving for Ux, Initial residual = nan, Final residual = nan, No Iterations 1000
smoothSolver:  Solving for Uy, Initial residual = nan, Final residual = nan, No Iterations 1000
smoothSolver:  Solving for Uz, Initial residual = nan, Final residual = nan, No Iterations 1000
GAMG:  Solving for p, Initial residual = nan, Final residual = nan, No Iterations 1000
time step continuity errors : sum local = nan, global = nan, cumulative = nan
smoothSolver:  Solving for epsilon, Initial residual = nan, Final residual = nan, No Iterations 1000
smoothSolver:  Solving for k, Initial residual = nan, Final residual = nan, No Iterations 1000
ExecutionTime = 289.536 s  ClockTime = 825 s

Time = 0.05s

smoothSolver:  Solving for Ux, Initial residual = nan, Final residual = nan, No Iterations 1000
smoothSolver:  Solving for Uy, Initial residual = nan, Final residual = nan, No Iterations 1000
smoothSolver:  Solving for Uz, Initial residual = nan, Final residual = nan, No Iterations 1000
GAMG:  Solving for p, Initial residual = nan, Final residual = nan, No Iterations 1000
time step continuity errors : sum local = nan, global = nan, cumulative = nan
smoothSolver:  Solving for epsilon, Initial residual = nan, Final residual = nan, No Iterations 1000
smoothSolver:  Solving for k, Initial residual = nan, Final residual = nan, No Iterations 1000
ExecutionTime = 387.757 s  ClockTime = 923 s

Time = 0.06s

smoothSolver:  Solving for Ux, Initial residual = nan, Final residual = nan, No Iterations 1000
smoothSolver:  Solving for Uy, Initial residual = nan, Final residual = nan, No Iterations 1000
smoothSolver:  Solving for Uz, Initial residual = nan, Final residual = nan, No Iterations 1000
GAMG:  Solving for p, Initial residual = nan, Final residual = nan, No Iterations 1000
time step continuity errors : sum local = nan, global = nan, cumulative = nan
smoothSolver:  Solving for epsilon, Initial residual = nan, Final residual = nan, No Iterations 1000
smoothSolver:  Solving for k, Initial residual = nan, Final residual = nan, No Iterations 1000
ExecutionTime = 482.746 s  ClockTime = 1018 s

Time = 0.07s

smoothSolver:  Solving for Ux, Initial residual = nan, Final residual = nan, No Iterations 1000
smoothSolver:  Solving for Uy, Initial residual = nan, Final residual = nan, No Iterations 1000
smoothSolver:  Solving for Uz, Initial residual = nan, Final residual = nan, No Iterations 1000
GAMG:  Solving for p, Initial residual = nan, Final residual = nan, No Iterations 1000
time step continuity errors : sum local = nan, global = nan, cumulative = nan
smoothSolver:  Solving for epsilon, Initial residual = nan, Final residual = nan, No Iterations 1000
smoothSolver:  Solving for k, Initial residual = nan, Final residual = nan, No Iterations 1000
ExecutionTime = 578.049 s  ClockTime = 1113 s

Time = 0.08s

smoothSolver:  Solving for Ux, Initial residual = nan, Final residual = nan, No Iterations 1000
smoothSolver:  Solving for Uy, Initial residual = nan, Final residual = nan, No Iterations 1000
smoothSolver:  Solving for Uz, Initial residual = nan, Final residual = nan, No Iterations 1000
GAMG:  Solving for p, Initial residual = nan, Final residual = nan, No Iterations 1000
time step continuity errors : sum local = nan, global = nan, cumulative = nan
smoothSolver:  Solving for epsilon, Initial residual = nan, Final residual = nan, No Iterations 1000
smoothSolver:  Solving for k, Initial residual = nan, Final residual = nan, No Iterations 1000
ExecutionTime = 675.604 s  ClockTime = 1211 s

Time = 0.09s

smoothSolver:  Solving for Ux, Initial residual = nan, Final residual = nan, No Iterations 1000
smoothSolver:  Solving for Uy, Initial residual = nan, Final residual = nan, No Iterations 1000
smoothSolver:  Solving for Uz, Initial residual = nan, Final residual = nan, No Iterations 1000
GAMG:  Solving for p, Initial residual = nan, Final residual = nan, No Iterations 1000
time step continuity errors : sum local = nan, global = nan, cumulative = nan
smoothSolver:  Solving for epsilon, Initial residual = nan, Final residual = nan, No Iterations 1000
smoothSolver:  Solving for k, Initial residual = nan, Final residual = nan, No Iterations 1000
ExecutionTime = 770.218 s  ClockTime = 1305 s

Time = 0.1s

smoothSolver:  Solving for Ux, Initial residual = nan, Final residual = nan, No Iterations 1000
smoothSolver:  Solving for Uy, Initial residual = nan, Final residual = nan, No Iterations 1000
smoothSolver:  Solving for Uz, Initial residual = nan, Final residual = nan, No Iterations 1000
GAMG:  Solving for p, Initial residual = nan, Final residual = nan, No Iterations 1000
time step continuity errors : sum local = nan, global = nan, cumulative = nan
smoothSolver:  Solving for epsilon, Initial residual = nan, Final residual = nan, No Iterations 1000
smoothSolver:  Solving for k, Initial residual = nan, Final residual = nan, No Iterations 1000
ExecutionTime = 865.179 s  ClockTime = 1400 s

Time = 0.11s

smoothSolver:  Solving for Ux, Initial residual = nan, Final residual = nan, No Iterations 1000
smoothSolver:  Solving for Uy, Initial residual = nan, Final residual = nan, No Iterations 1000
smoothSolver:  Solving for Uz, Initial residual = nan, Final residual = nan, No Iterations 1000
GAMG:  Solving for p, Initial residual = nan, Final residual = nan, No Iterations 1000
time step continuity errors : sum local = nan, global = nan, cumulative = nan
smoothSolver:  Solving for epsilon, Initial residual = nan, Final residual = nan, No Iterations 1000
smoothSolver:  Solving for k, Initial residual = nan, Final residual = nan, No Iterations 1000
ExecutionTime = 958.768 s  ClockTime = 1494 s

Time = 0.12s

smoothSolver:  Solving for Ux, Initial residual = nan, Final residual = nan, No Iterations 1000
smoothSolver:  Solving for Uy, Initial residual = nan, Final residual = nan, No Iterations 1000
smoothSolver:  Solving for Uz, Initial residual = nan, Final residual = nan, No Iterations 1000
GAMG:  Solving for p, Initial residual = nan, Final residual = nan, No Iterations 1000
time step continuity errors : sum local = nan, global = nan, cumulative = nan
smoothSolver:  Solving for epsilon, Initial residual = nan, Final residual = nan, No Iterations 1000
smoothSolver:  Solving for k, Initial residual = nan, Final residual = nan, No Iterations 1000
ExecutionTime = 1052.37 s  ClockTime = 1588 s

Time = 0.13s

smoothSolver:  Solving for Ux, Initial residual = nan, Final residual = nan, No Iterations 1000
smoothSolver:  Solving for Uy, Initial residual = nan, Final residual = nan, No Iterations 1000
smoothSolver:  Solving for Uz, Initial residual = nan, Final residual = nan, No Iterations 1000
GAMG:  Solving for p, Initial residual = nan, Final residual = nan, No Iterations 1000
time step continuity errors : sum local = nan, global = nan, cumulative = nan
smoothSolver:  Solving for epsilon, Initial residual = nan, Final residual = nan, No Iterations 1000
smoothSolver:  Solving for k, Initial residual = nan, Final residual = nan, No Iterations 1000
ExecutionTime = 1145.78 s  ClockTime = 1681 s

Time = 0.14s

smoothSolver:  Solving for Ux, Initial residual = nan, Final residual = nan, No Iterations 1000
smoothSolver:  Solving for Uy, Initial residual = nan, Final residual = nan, No Iterations 1000
smoothSolver:  Solving for Uz, Initial residual = nan, Final residual = nan, No Iterations 1000
GAMG:  Solving for p, Initial residual = nan, Final residual = nan, No Iterations 1000
time step continuity errors : sum local = nan, global = nan, cumulative = nan
smoothSolver:  Solving for epsilon, Initial residual = nan, Final residual = nan, No Iterations 1000
smoothSolver:  Solving for k, Initial residual = nan, Final residual = nan, No Iterations 1000
ExecutionTime = 1239.74 s  ClockTime = 1775 s

Time = 0.15s

smoothSolver:  Solving for Ux, Initial residual = nan, Final residual = nan, No Iterations 1000
smoothSolver:  Solving for Uy, Initial residual = nan, Final residual = nan, No Iterations 1000
smoothSolver:  Solving for Uz, Initial residual = nan, Final residual = nan, No Iterations 1000
GAMG:  Solving for p, Initial residual = nan, Final residual = nan, No Iterations 1000
time step continuity errors : sum local = nan, global = nan, cumulative = nan
smoothSolver:  Solving for epsilon, Initial residual = nan, Final residual = nan, No Iterations 1000
smoothSolver:  Solving for k, Initial residual = nan, Final residual = nan, No Iterations 1000
ExecutionTime = 1333.66 s  ClockTime = 1869 s

Time = 0.16s

smoothSolver:  Solving for Ux, Initial residual = nan, Final residual = nan, No Iterations 1000
smoothSolver:  Solving for Uy, Initial residual = nan, Final residual = nan, No Iterations 1000
smoothSolver:  Solving for Uz, Initial residual = nan, Final residual = nan, No Iterations 1000
GAMG:  Solving for p, Initial residual = nan, Final residual = nan, No Iterations 1000
time step continuity errors : sum local = nan, global = nan, cumulative = nan
smoothSolver:  Solving for epsilon, Initial residual = nan, Final residual = nan, No Iterations 1000
smoothSolver:  Solving for k, Initial residual = nan, Final residual = nan, No Iterations 1000
ExecutionTime = 1427.41 s  ClockTime = 1963 s

Time = 0.17s

smoothSolver:  Solving for Ux, Initial residual = nan, Final residual = nan, No Iterations 1000
smoothSolver:  Solving for Uy, Initial residual = nan, Final residual = nan, No Iterations 1000
smoothSolver:  Solving for Uz, Initial residual = nan, Final residual = nan, No Iterations 1000
GAMG:  Solving for p, Initial residual = nan, Final residual = nan, No Iterations 1000
time step continuity errors : sum local = nan, global = nan, cumulative = nan
smoothSolver:  Solving for epsilon, Initial residual = nan, Final residual = nan, No Iterations 1000
smoothSolver:  Solving for k, Initial residual = nan, Final residual = nan, No Iterations 1000
ExecutionTime = 1521.06 s  ClockTime = 2056 s

Time = 0.18s

smoothSolver:  Solving for Ux, Initial residual = nan, Final residual = nan, No Iterations 1000
smoothSolver:  Solving for Uy, Initial residual = nan, Final residual = nan, No Iterations 1000
smoothSolver:  Solving for Uz, Initial residual = nan, Final residual = nan, No Iterations 1000
GAMG:  Solving for p, Initial residual = nan, Final residual = nan, No Iterations 1000
time step continuity errors : sum local = nan, global = nan, cumulative = nan
smoothSolver:  Solving for epsilon, Initial residual = nan, Final residual = nan, No Iterations 1000
smoothSolver:  Solving for k, Initial residual = nan, Final residual = nan, No Iterations 1000
ExecutionTime = 1614.83 s  ClockTime = 2150 s

Time = 0.19s

smoothSolver:  Solving for Ux, Initial residual = nan, Final residual = nan, No Iterations 1000
smoothSolver:  Solving for Uy, Initial residual = nan, Final residual = nan, No Iterations 1000
smoothSolver:  Solving for Uz, Initial residual = nan, Final residual = nan, No Iterations 1000
GAMG:  Solving for p, Initial residual = nan, Final residual = nan, No Iterations 1000
time step continuity errors : sum local = nan, global = nan, cumulative = nan
smoothSolver:  Solving for epsilon, Initial residual = nan, Final residual = nan, No Iterations 1000
smoothSolver:  Solving for k, Initial residual = nan, Final residual = nan, No Iterations 1000
ExecutionTime = 1708.58 s  ClockTime = 2244 s

Time = 0.2s

smoothSolver:  Solving for Ux, Initial residual = nan, Final residual = nan, No Iterations 1000
smoothSolver:  Solving for Uy, Initial residual = nan, Final residual = nan, No Iterations 1000
smoothSolver:  Solving for Uz, Initial residual = nan, Final residual = nan, No Iterations 1000
GAMG:  Solving for p, Initial residual = nan, Final residual = nan, No Iterations 1000
time step continuity errors : sum local = nan, global = nan, cumulative = nan
smoothSolver:  Solving for epsilon, Initial residual = nan, Final residual = nan, No Iterations 1000
smoothSolver:  Solving for k, Initial residual = nan, Final residual = nan, No Iterations 1000
ExecutionTime = 1802.47 s  ClockTime = 2338 s

Time = 0.21s

smoothSolver:  Solving for Ux, Initial residual = nan, Final residual = nan, No Iterations 1000
smoothSolver:  Solving for Uy, Initial residual = nan, Final residual = nan, No Iterations 1000
smoothSolver:  Solving for Uz, Initial residual = nan, Final residual = nan, No Iterations 1000
GAMG:  Solving for p, Initial residual = nan, Final residual = nan, No Iterations 1000
time step continuity errors : sum local = nan, global = nan, cumulative = nan
smoothSolver:  Solving for epsilon, Initial residual = nan, Final residual = nan, No Iterations 1000
smoothSolver:  Solving for k, Initial residual = nan, Final residual = nan, No Iterations 1000
ExecutionTime = 1901.75 s  ClockTime = 2437 s

Time = 0.22s

smoothSolver:  Solving for Ux, Initial residual = nan, Final residual = nan, No Iterations 1000
smoothSolver:  Solving for Uy, Initial residual = nan, Final residual = nan, No Iterations 1000
smoothSolver:  Solving for Uz, Initial residual = nan, Final residual = nan, No Iterations 1000
GAMG:  Solving for p, Initial residual = nan, Final residual = nan, No Iterations 1000
time step continuity errors : sum local = nan, global = nan, cumulative = nan
smoothSolver:  Solving for epsilon, Initial residual = nan, Final residual = nan, No Iterations 1000
smoothSolver:  Solving for k, Initial residual = nan, Final residual = nan, No Iterations 1000
ExecutionTime = 1998.12 s  ClockTime = 2534 s

Time = 0.23s

smoothSolver:  Solving for Ux, Initial residual = nan, Final residual = nan, No Iterations 1000
smoothSolver:  Solving for Uy, Initial residual = nan, Final residual = nan, No Iterations 1000
smoothSolver:  Solving for Uz, Initial residual = nan, Final residual = nan, No Iterations 1000
GAMG:  Solving for p, Initial residual = nan, Final residual = nan, No Iterations 1000
time step continuity errors : sum local = nan, global = nan, cumulative = nan
smoothSolver:  Solving for epsilon, Initial residual = nan, Final residual = nan, No Iterations 1000
smoothSolver:  Solving for k, Initial residual = nan, Final residual = nan, No Iterations 1000
ExecutionTime = 2093.5 s  ClockTime = 2629 s

Time = 0.24s

smoothSolver:  Solving for Ux, Initial residual = nan, Final residual = nan, No Iterations 1000
smoothSolver:  Solving for Uy, Initial residual = nan, Final residual = nan, No Iterations 1000
smoothSolver:  Solving for Uz, Initial residual = nan, Final residual = nan, No Iterations 1000
GAMG:  Solving for p, Initial residual = nan, Final residual = nan, No Iterations 1000
time step continuity errors : sum local = nan, global = nan, cumulative = nan
smoothSolver:  Solving for epsilon, Initial residual = nan, Final residual = nan, No Iterations 1000
smoothSolver:  Solving for k, Initial residual = nan, Final residual = nan, No Iterations 1000
ExecutionTime = 2187.94 s  ClockTime = 2723 s

Time = 0.25s

smoothSolver:  Solving for Ux, Initial residual = nan, Final residual = nan, No Iterations 1000
smoothSolver:  Solving for Uy, Initial residual = nan, Final residual = nan, No Iterations 1000
smoothSolver:  Solving for Uz, Initial residual = nan, Final residual = nan, No Iterations 1000
GAMG:  Solving for p, Initial residual = nan, Final residual = nan, No Iterations 1000
time step continuity errors : sum local = nan, global = nan, cumulative = nan
smoothSolver:  Solving for epsilon, Initial residual = nan, Final residual = nan, No Iterations 1000
smoothSolver:  Solving for k, Initial residual = nan, Final residual = nan, No Iterations 1000
ExecutionTime = 2281.6 s  ClockTime = 2817 s

Time = 0.26s

smoothSolver:  Solving for Ux, Initial residual = nan, Final residual = nan, No Iterations 1000
smoothSolver:  Solving for Uy, Initial residual = nan, Final residual = nan, No Iterations 1000
smoothSolver:  Solving for Uz, Initial residual = nan, Final residual = nan, No Iterations 1000
GAMG:  Solving for p, Initial residual = nan, Final residual = nan, No Iterations 1000
time step continuity errors : sum local = nan, global = nan, cumulative = nan
smoothSolver:  Solving for epsilon, Initial residual = nan, Final residual = nan, No Iterations 1000
smoothSolver:  Solving for k, Initial residual = nan, Final residual = nan, No Iterations 1000
ExecutionTime = 2376.39 s  ClockTime = 2912 s

Time = 0.27s

smoothSolver:  Solving for Ux, Initial residual = nan, Final residual = nan, No Iterations 1000
smoothSolver:  Solving for Uy, Initial residual = nan, Final residual = nan, No Iterations 1000
smoothSolver:  Solving for Uz, Initial residual = nan, Final residual = nan, No Iterations 1000
GAMG:  Solving for p, Initial residual = nan, Final residual = nan, No Iterations 1000
time step continuity errors : sum local = nan, global = nan, cumulative = nan
smoothSolver:  Solving for epsilon, Initial residual = nan, Final residual = nan, No Iterations 1000
smoothSolver:  Solving for k, Initial residual = nan, Final residual = nan, No Iterations 1000
ExecutionTime = 2470.79 s  ClockTime = 3006 s

Time = 0.28s

smoothSolver:  Solving for Ux, Initial residual = nan, Final residual = nan, No Iterations 1000
smoothSolver:  Solving for Uy, Initial residual = nan, Final residual = nan, No Iterations 1000
smoothSolver:  Solving for Uz, Initial residual = nan, Final residual = nan, No Iterations 1000
GAMG:  Solving for p, Initial residual = nan, Final residual = nan, No Iterations 1000
time step continuity errors : sum local = nan, global = nan, cumulative = nan
smoothSolver:  Solving for epsilon, Initial residual = nan, Final residual = nan, No Iterations 1000
smoothSolver:  Solving for k, Initial residual = nan, Final residual = nan, No Iterations 1000
ExecutionTime = 2565.45 s  ClockTime = 3101 s

Time = 0.29s

smoothSolver:  Solving for Ux, Initial residual = nan, Final residual = nan, No Iterations 1000
smoothSolver:  Solving for Uy, Initial residual = nan, Final residual = nan, No Iterations 1000
smoothSolver:  Solving for Uz, Initial residual = nan, Final residual = nan, No Iterations 1000
GAMG:  Solving for p, Initial residual = nan, Final residual = nan, No Iterations 1000
time step continuity errors : sum local = nan, global = nan, cumulative = nan
smoothSolver:  Solving for epsilon, Initial residual = nan, Final residual = nan, No Iterations 1000
smoothSolver:  Solving for k, Initial residual = nan, Final residual = nan, No Iterations 1000
ExecutionTime = 2659.19 s  ClockTime = 3195 s

Time = 0.3s

smoothSolver:  Solving for Ux, Initial residual = nan, Final residual = nan, No Iterations 1000
smoothSolver:  Solving for Uy, Initial residual = nan, Final residual = nan, No Iterations 1000
smoothSolver:  Solving for Uz, Initial residual = nan, Final residual = nan, No Iterations 1000
GAMG:  Solving for p, Initial residual = nan, Final residual = nan, No Iterations 1000
time step continuity errors : sum local = nan, global = nan, cumulative = nan
smoothSolver:  Solving for epsilon, Initial residual = nan, Final residual = nan, No Iterations 1000
smoothSolver:  Solving for k, Initial residual = nan, Final residual = nan, No Iterations 1000
ExecutionTime = 2753.74 s  ClockTime = 3289 s

Time = 0.31s

smoothSolver:  Solving for Ux, Initial residual = nan, Final residual = nan, No Iterations 1000
smoothSolver:  Solving for Uy, Initial residual = nan, Final residual = nan, No Iterations 1000
smoothSolver:  Solving for Uz, Initial residual = nan, Final residual = nan, No Iterations 1000
GAMG:  Solving for p, Initial residual = nan, Final residual = nan, No Iterations 1000
time step continuity errors : sum local = nan, global = nan, cumulative = nan
smoothSolver:  Solving for epsilon, Initial residual = nan, Final residual = nan, No Iterations 1000
smoothSolver:  Solving for k, Initial residual = nan, Final residual = nan, No Iterations 1000
ExecutionTime = 2848.53 s  ClockTime = 3384 s

Time = 0.32s

smoothSolver:  Solving for Ux, Initial residual = nan, Final residual = nan, No Iterations 1000
smoothSolver:  Solving for Uy, Initial residual = nan, Final residual = nan, No Iterations 1000
smoothSolver:  Solving for Uz, Initial residual = nan, Final residual = nan, No Iterations 1000
GAMG:  Solving for p, Initial residual = nan, Final residual = nan, No Iterations 1000
time step continuity errors : sum local = nan, global = nan, cumulative = nan
smoothSolver:  Solving for epsilon, Initial residual = nan, Final residual = nan, No Iterations 1000
smoothSolver:  Solving for k, Initial residual = nan, Final residual = nan, No Iterations 1000
ExecutionTime = 2942.56 s  ClockTime = 3478 s

Time = 0.33s

smoothSolver:  Solving for Ux, Initial residual = nan, Final residual = nan, No Iterations 1000
smoothSolver:  Solving for Uy, Initial residual = nan, Final residual = nan, No Iterations 1000
smoothSolver:  Solving for Uz, Initial residual = nan, Final residual = nan, No Iterations 1000
GAMG:  Solving for p, Initial residual = nan, Final residual = nan, No Iterations 1000
time step continuity errors : sum local = nan, global = nan, cumulative = nan
smoothSolver:  Solving for epsilon, Initial residual = nan, Final residual = nan, No Iterations 1000
smoothSolver:  Solving for k, Initial residual = nan, Final residual = nan, No Iterations 1000
ExecutionTime = 3037.04 s  ClockTime = 3573 s

Time = 0.34s

smoothSolver:  Solving for Ux, Initial residual = nan, Final residual = nan, No Iterations 1000
smoothSolver:  Solving for Uy, Initial residual = nan, Final residual = nan, No Iterations 1000
smoothSolver:  Solving for Uz, Initial residual = nan, Final residual = nan, No Iterations 1000
GAMG:  Solving for p, Initial residual = nan, Final residual = nan, No Iterations 1000
time step continuity errors : sum local = nan, global = nan, cumulative = nan
smoothSolver:  Solving for epsilon, Initial residual = nan, Final residual = nan, No Iterations 1000
smoothSolver:  Solving for k, Initial residual = nan, Final residual = nan, No Iterations 1000
ExecutionTime = 3131.9 s  ClockTime = 3668 s

Time = 0.35s

smoothSolver:  Solving for Ux, Initial residual = nan, Final residual = nan, No Iterations 1000
smoothSolver:  Solving for Uy, Initial residual = nan, Final residual = nan, No Iterations 1000
smoothSolver:  Solving for Uz, Initial residual = nan, Final residual = nan, No Iterations 1000
GAMG:  Solving for p, Initial residual = nan, Final residual = nan, No Iterations 1000
time step continuity errors : sum local = nan, global = nan, cumulative = nan
smoothSolver:  Solving for epsilon, Initial residual = nan, Final residual = nan, No Iterations 1000
smoothSolver:  Solving for k, Initial residual = nan, Final residual = nan, No Iterations 1000
ExecutionTime = 3225.81 s  ClockTime = 3761 s

Time = 0.36s

smoothSolver:  Solving for Ux, Initial residual = nan, Final residual = nan, No Iterations 1000
smoothSolver:  Solving for Uy, Initial residual = nan, Final residual = nan, No Iterations 1000
smoothSolver:  Solving for Uz, Initial residual = nan, Final residual = nan, No Iterations 1000
GAMG:  Solving for p, Initial residual = nan, Final residual = nan, No Iterations 1000
time step continuity errors : sum local = nan, global = nan, cumulative = nan
smoothSolver:  Solving for epsilon, Initial residual = nan, Final residual = nan, No Iterations 1000
smoothSolver:  Solving for k, Initial residual = nan, Final residual = nan, No Iterations 1000
ExecutionTime = 3320.58 s  ClockTime = 3856 s

Time = 0.37s

smoothSolver:  Solving for Ux, Initial residual = nan, Final residual = nan, No Iterations 1000
smoothSolver:  Solving for Uy, Initial residual = nan, Final residual = nan, No Iterations 1000
smoothSolver:  Solving for Uz, Initial residual = nan, Final residual = nan, No Iterations 1000
GAMG:  Solving for p, Initial residual = nan, Final residual = nan, No Iterations 1000
time step continuity errors : sum local = nan, global = nan, cumulative = nan
smoothSolver:  Solving for epsilon, Initial residual = nan, Final residual = nan, No Iterations 1000
smoothSolver:  Solving for k, Initial residual = nan, Final residual = nan, No Iterations 1000
ExecutionTime = 3414.81 s  ClockTime = 3951 s

Time = 0.38s

smoothSolver:  Solving for Ux, Initial residual = nan, Final residual = nan, No Iterations 1000
smoothSolver:  Solving for Uy, Initial residual = nan, Final residual = nan, No Iterations 1000
smoothSolver:  Solving for Uz, Initial residual = nan, Final residual = nan, No Iterations 1000
GAMG:  Solving for p, Initial residual = nan, Final residual = nan, No Iterations 1000
time step continuity errors : sum local = nan, global = nan, cumulative = nan
smoothSolver:  Solving for epsilon, Initial residual = nan, Final residual = nan, No Iterations 1000
smoothSolver:  Solving for k, Initial residual = nan, Final residual = nan, No Iterations 1000
ExecutionTime = 3509.09 s  ClockTime = 4045 s

Time = 0.39s

smoothSolver:  Solving for Ux, Initial residual = nan, Final residual = nan, No Iterations 1000
smoothSolver:  Solving for Uy, Initial residual = nan, Final residual = nan, No Iterations 1000
smoothSolver:  Solving for Uz, Initial residual = nan, Final residual = nan, No Iterations 1000
