/*---------------------------------------------------------------------------*\
  =========                 |
  \\      /  F ield         | OpenFOAM: The Open Source CFD Toolbox
   \\    /   O peration     | Website:  https://openfoam.org
    \\  /    A nd           | Version:  10
     \\/     M anipulation  |
\*---------------------------------------------------------------------------*/
Build  : 10-2c6a80318abb
Exec   : /opt/openfoam10/platforms/linux64GccDPInt32Opt/bin/buoyantFoam
Date   : Jul 15 2022
Time   : 22:54:24
Host   : "0af20a37214b"
PID    : 506
I/O    : uncollated
Case   : /home/openfoam/hotRoom
nProcs : 1
sigFpe : Enabling floating point exception trapping (FOAM_SIGFPE).
fileModificationChecking : Monitoring run-time modified files using timeStampMaster (fileModificationSkew 10)
allowSystemOperations : Allowing user-supplied system call operations

// * * * * * * * * * * * * * * * * * * * * * * * * * * * * * * * * * * * * * //
Create time

Create mesh for time = 0


PIMPLE: No convergence criteria found


PIMPLE: Operating solver in transient mode with 1 outer corrector
PIMPLE: Operating solver in PISO mode


Reading thermophysical properties

Selecting thermodynamics package 
{
    type            heRhoThermo;
    mixture         pureMixture;
    transport       const;
    thermo          hConst;
    equationOfState perfectGas;
    specie          specie;
    energy          sensibleEnthalpy;
}

Reading field U

Reading/calculating face flux field phi

Creating turbulence model

Selecting turbulence model type RAS
Selecting RAS turbulence model kEpsilon
RAS
{
    model           kEpsilon;
    turbulence      on;
    printCoeffs     on;
    Cmu             0.09;
    C1              1.44;
    C2              1.92;
    C3              0;
    sigmak          1;
    sigmaEps        1.3;
}

Creating thermophysical transport model

Selecting thermophysical transport type RAS
Selecting default RAS thermophysical transport model unityLewisEddyDiffusivity

Reading g

Reading hRef
Calculating field g.h


Reading pRef
Reading field p_rgh

Creating field dpdt

Creating field kinetic energy K

No MRF models present

No fvModels present
No fvConstraints present
Courant Number mean: 0 max: 0

Starting time loop

Courant Number mean: 0 max: 0
Time = 2s

diagonal:  Solving for rho, Initial residual = 0, Final residual = 0, No Iterations 0
DILUPBiCGStab:  Solving for Ux, Initial residual = 0, Final residual = 0, No Iterations 0
DILUPBiCGStab:  Solving for Uy, Initial residual = 1, Final residual = 6.37815e-07, No Iterations 4
DILUPBiCGStab:  Solving for Uz, Initial residual = 0, Final residual = 0, No Iterations 0
DILUPBiCGStab:  Solving for h, Initial residual = 1, Final residual = 2.27969e-08, No Iterations 1
DICPCG:  Solving for p_rgh, Initial residual = 0.970316, Final residual = 0.00726018, No Iterations 8
diagonal:  Solving for rho, Initial residual = 0, Final residual = 0, No Iterations 0
time step continuity errors : sum local = 0.116047, global = 0.00115888, cumulative = 0.00115888
DICPCG:  Solving for p_rgh, Initial residual = 0.809343, Final residual = 6.35083e-09, No Iterations 52
diagonal:  Solving for rho, Initial residual = 0, Final residual = 0, No Iterations 0
time step continuity errors : sum local = 2.93798e-05, global = -2.35887e-07, cumulative = 0.00115865
DILUPBiCGStab:  Solving for epsilon, Initial residual = 0.143706, Final residual = 5.25334e-07, No Iterations 4
DILUPBiCGStab:  Solving for k, Initial residual = 1, Final residual = 2.97465e-07, No Iterations 5
ExecutionTime = 1.03231 s  ClockTime = 1 s

Courant Number mean: 2.67413 max: 11.3195
Time = 4s

diagonal:  Solving for rho, Initial residual = 0, Final residual = 0, No Iterations 0
DILUPBiCGStab:  Solving for Ux, Initial residual = 0.501827, Final residual = 3.562e-07, No Iterations 6
DILUPBiCGStab:  Solving for Uy, Initial residual = 0.669861, Final residual = 7.03307e-07, No Iterations 5
DILUPBiCGStab:  Solving for Uz, Initial residual = 0.501827, Final residual = 3.562e-07, No Iterations 6
DILUPBiCGStab:  Solving for h, Initial residual = 0.447678, Final residual = 6.91908e-07, No Iterations 5
DICPCG:  Solving for p_rgh, Initial residual = 0.956877, Final residual = 0.00379945, No Iterations 12
diagonal:  Solving for rho, Initial residual = 0, Final residual = 0, No Iterations 0
time step continuity errors : sum local = 0.0220836, global = 0.000155398, cumulative = 0.00131404
DICPCG:  Solving for p_rgh, Initial residual = 0.676886, Final residual = 7.8235e-09, No Iterations 51
diagonal:  Solving for rho, Initial residual = 0, Final residual = 0, No Iterations 0
time step continuity errors : sum local = 6.16721e-06, global = 1.07906e-08, cumulative = 0.00131405
DILUPBiCGStab:  Solving for epsilon, Initial residual = 0.0734887, Final residual = 1.82204e-07, No Iterations 3
DILUPBiCGStab:  Solving for k, Initial residual = 0.288257, Final residual = 7.98411e-07, No Iterations 4
ExecutionTime = 1.48101 s  ClockTime = 2 s

Courant Number mean: 2.33518 max: 9.607
Time = 6s

diagonal:  Solving for rho, Initial residual = 0, Final residual = 0, No Iterations 0
DILUPBiCGStab:  Solving for Ux, Initial residual = 0.250044, Final residual = 2.08215e-07, No Iterations 5
DILUPBiCGStab:  Solving for Uy, Initial residual = 0.603391, Final residual = 2.40544e-07, No Iterations 5
DILUPBiCGStab:  Solving for Uz, Initial residual = 0.250044, Final residual = 2.08215e-07, No Iterations 5
DILUPBiCGStab:  Solving for h, Initial residual = 0.304408, Final residual = 4.57282e-07, No Iterations 5
DICPCG:  Solving for p_rgh, Initial residual = 0.952961, Final residual = 0.00658044, No Iterations 9
diagonal:  Solving for rho, Initial residual = 0, Final residual = 0, No Iterations 0
time step continuity errors : sum local = 0.0150508, global = 8.21146e-05, cumulative = 0.00139617
DICPCG:  Solving for p_rgh, Initial residual = 0.692116, Final residual = 9.43617e-09, No Iterations 53
diagonal:  Solving for rho, Initial residual = 0, Final residual = 0, No Iterations 0
time step continuity errors : sum local = 4.44246e-06, global = -5.58641e-08, cumulative = 0.00139611
DILUPBiCGStab:  Solving for epsilon, Initial residual = 0.190973, Final residual = 3.13898e-07, No Iterations 3
DILUPBiCGStab:  Solving for k, Initial residual = 0.353422, Final residual = 5.79654e-07, No Iterations 4
ExecutionTime = 1.92032 s  ClockTime = 2 s

Courant Number mean: 1.93276 max: 4.62836
Time = 8s

diagonal:  Solving for rho, Initial residual = 0, Final residual = 0, No Iterations 0
DILUPBiCGStab:  Solving for Ux, Initial residual = 0.258311, Final residual = 8.99669e-07, No Iterations 5
DILUPBiCGStab:  Solving for Uy, Initial residual = 0.403602, Final residual = 7.08567e-07, No Iterations 5
DILUPBiCGStab:  Solving for Uz, Initial residual = 0.258311, Final residual = 8.99669e-07, No Iterations 5
DILUPBiCGStab:  Solving for h, Initial residual = 0.160084, Final residual = 6.2137e-07, No Iterations 4
DICPCG:  Solving for p_rgh, Initial residual = 0.898498, Final residual = 0.00506682, No Iterations 13
diagonal:  Solving for rho, Initial residual = 0, Final residual = 0, No Iterations 0
time step continuity errors : sum local = 0.00368535, global = 7.72406e-06, cumulative = 0.00140384
DICPCG:  Solving for p_rgh, Initial residual = 0.667003, Final residual = 4.05555e-09, No Iterations 55
diagonal:  Solving for rho, Initial residual = 0, Final residual = 0, No Iterations 0
time step continuity errors : sum local = 9.807e-07, global = 2.67035e-11, cumulative = 0.00140384
DILUPBiCGStab:  Solving for epsilon, Initial residual = 0.215861, Final residual = 2.28212e-07, No Iterations 3
DILUPBiCGStab:  Solving for k, Initial residual = 0.3469, Final residual = 7.57782e-07, No Iterations 4
ExecutionTime = 2.35939 s  ClockTime = 3 s

Courant Number mean: 1.65212 max: 3.59612
Time = 10s

diagonal:  Solving for rho, Initial residual = 0, Final residual = 0, No Iterations 0
DILUPBiCGStab:  Solving for Ux, Initial residual = 0.0889977, Final residual = 9.75994e-07, No Iterations 4
DILUPBiCGStab:  Solving for Uy, Initial residual = 0.161834, Final residual = 4.80512e-07, No Iterations 4
DILUPBiCGStab:  Solving for Uz, Initial residual = 0.0889977, Final residual = 9.75994e-07, No Iterations 4
DILUPBiCGStab:  Solving for h, Initial residual = 0.116981, Final residual = 1.9629e-07, No Iterations 4
DICPCG:  Solving for p_rgh, Initial residual = 0.635596, Final residual = 0.00310957, No Iterations 13
diagonal:  Solving for rho, Initial residual = 0, Final residual = 0, No Iterations 0
time step continuity errors : sum local = 0.000673305, global = -2.03432e-06, cumulative = 0.0014018
DICPCG:  Solving for p_rgh, Initial residual = 0.427402, Final residual = 4.85841e-09, No Iterations 55
diagonal:  Solving for rho, Initial residual = 0, Final residual = 0, No Iterations 0
time step continuity errors : sum local = 1.75447e-07, global = -2.55029e-08, cumulative = 0.00140178
DILUPBiCGStab:  Solving for epsilon, Initial residual = 0.22043, Final residual = 1.96623e-07, No Iterations 3
DILUPBiCGStab:  Solving for k, Initial residual = 0.304645, Final residual = 4.5852e-07, No Iterations 4
ExecutionTime = 2.79365 s  ClockTime = 3 s

Courant Number mean: 1.51629 max: 3.39759
Time = 12s

diagonal:  Solving for rho, Initial residual = 0, Final residual = 0, No Iterations 0
DILUPBiCGStab:  Solving for Ux, Initial residual = 0.0575492, Final residual = 2.99697e-08, No Iterations 5
DILUPBiCGStab:  Solving for Uy, Initial residual = 0.0802879, Final residual = 3.13151e-07, No Iterations 4
DILUPBiCGStab:  Solving for Uz, Initial residual = 0.0575492, Final residual = 2.99697e-08, No Iterations 5
DILUPBiCGStab:  Solving for h, Initial residual = 0.107818, Final residual = 3.9317e-07, No Iterations 4
DICPCG:  Solving for p_rgh, Initial residual = 0.317935, Final residual = 0.00191043, No Iterations 13
diagonal:  Solving for rho, Initial residual = 0, Final residual = 0, No Iterations 0
time step continuity errors : sum local = 0.000262767, global = -5.93784e-06, cumulative = 0.00139584
DICPCG:  Solving for p_rgh, Initial residual = 0.171323, Final residual = 8.48029e-09, No Iterations 53
diagonal:  Solving for rho, Initial residual = 0, Final residual = 0, No Iterations 0
time step continuity errors : sum local = 7.27298e-08, global = 8.24369e-09, cumulative = 0.00139585
DILUPBiCGStab:  Solving for epsilon, Initial residual = 0.210328, Final residual = 1.43059e-07, No Iterations 3
DILUPBiCGStab:  Solving for k, Initial residual = 0.260902, Final residual = 2.63554e-07, No Iterations 4
ExecutionTime = 3.22841 s  ClockTime = 3 s

Courant Number mean: 1.38292 max: 3.02132
Time = 14s

diagonal:  Solving for rho, Initial residual = 0, Final residual = 0, No Iterations 0
DILUPBiCGStab:  Solving for Ux, Initial residual = 0.0507133, Final residual = 4.02561e-07, No Iterations 4
DILUPBiCGStab:  Solving for Uy, Initial residual = 0.0599607, Final residual = 5.07577e-07, No Iterations 4
DILUPBiCGStab:  Solving for Uz, Initial residual = 0.0507133, Final residual = 4.02561e-07, No Iterations 4
DILUPBiCGStab:  Solving for h, Initial residual = 0.0935459, Final residual = 1.24038e-07, No Iterations 4
DICPCG:  Solving for p_rgh, Initial residual = 0.249037, Final residual = 0.0022592, No Iterations 9
diagonal:  Solving for rho, Initial residual = 0, Final residual = 0, No Iterations 0
time step continuity errors : sum local = 0.000254024, global = -6.4048e-06, cumulative = 0.00138944
DICPCG:  Solving for p_rgh, Initial residual = 0.153859, Final residual = 4.48681e-09, No Iterations 54
diagonal:  Solving for rho, Initial residual = 0, Final residual = 0, No Iterations 0
time step continuity errors : sum local = 7.05208e-08, global = -1.22898e-09, cumulative = 0.00138944
DILUPBiCGStab:  Solving for epsilon, Initial residual = 0.193479, Final residual = 9.78458e-08, No Iterations 3
DILUPBiCGStab:  Solving for k, Initial residual = 0.229242, Final residual = 1.58764e-07, No Iterations 4
ExecutionTime = 3.64573 s  ClockTime = 4 s

Courant Number mean: 1.27478 max: 2.73179
Time = 16s

diagonal:  Solving for rho, Initial residual = 0, Final residual = 0, No Iterations 0
DILUPBiCGStab:  Solving for Ux, Initial residual = 0.0450328, Final residual = 8.86974e-07, No Iterations 3
DILUPBiCGStab:  Solving for Uy, Initial residual = 0.0514787, Final residual = 2.79892e-07, No Iterations 4
DILUPBiCGStab:  Solving for Uz, Initial residual = 0.0450328, Final residual = 8.86974e-07, No Iterations 3
DILUPBiCGStab:  Solving for h, Initial residual = 0.0815858, Final residual = 7.35533e-07, No Iterations 4
DICPCG:  Solving for p_rgh, Initial residual = 0.194251, Final residual = 0.000848182, No Iterations 10
diagonal:  Solving for rho, Initial residual = 0, Final residual = 0, No Iterations 0
time step continuity errors : sum local = 8.48433e-05, global = -6.17882e-06, cumulative = 0.00138326
DICPCG:  Solving for p_rgh, Initial residual = 0.116601, Final residual = 8.78312e-09, No Iterations 53
diagonal:  Solving for rho, Initial residual = 0, Final residual = 0, No Iterations 0
time step continuity errors : sum local = 2.38587e-08, global = 1.41617e-09, cumulative = 0.00138326
DILUPBiCGStab:  Solving for epsilon, Initial residual = 0.174359, Final residual = 8.35704e-07, No Iterations 3
DILUPBiCGStab:  Solving for k, Initial residual = 0.207018, Final residual = 7.38824e-07, No Iterations 3
ExecutionTime = 4.05454 s  ClockTime = 4 s

Courant Number mean: 1.18163 max: 2.46533
Time = 18s

diagonal:  Solving for rho, Initial residual = 0, Final residual = 0, No Iterations 0
DILUPBiCGStab:  Solving for Ux, Initial residual = 0.0419083, Final residual = 4.58947e-07, No Iterations 3
DILUPBiCGStab:  Solving for Uy, Initial residual = 0.0446221, Final residual = 6.8305e-07, No Iterations 3
DILUPBiCGStab:  Solving for Uz, Initial residual = 0.0419083, Final residual = 4.58947e-07, No Iterations 3
DILUPBiCGStab:  Solving for h, Initial residual = 0.0698239, Final residual = 8.0313e-07, No Iterations 4
DICPCG:  Solving for p_rgh, Initial residual = 0.173633, Final residual = 0.00152039, No Iterations 9
diagonal:  Solving for rho, Initial residual = 0, Final residual = 0, No Iterations 0
time step continuity errors : sum local = 0.000136956, global = -5.80427e-06, cumulative = 0.00137746
DICPCG:  Solving for p_rgh, Initial residual = 0.103148, Final residual = 7.80673e-09, No Iterations 53
diagonal:  Solving for rho, Initial residual = 0, Final residual = 0, No Iterations 0
time step continuity errors : sum local = 3.81385e-08, global = 5.2795e-10, cumulative = 0.00137746
DILUPBiCGStab:  Solving for epsilon, Initial residual = 0.156787, Final residual = 5.58865e-07, No Iterations 3
DILUPBiCGStab:  Solving for k, Initial residual = 0.190201, Final residual = 3.10459e-07, No Iterations 3
ExecutionTime = 4.47962 s  ClockTime = 5 s

Courant Number mean: 1.10028 max: 2.23473
Time = 20s

diagonal:  Solving for rho, Initial residual = 0, Final residual = 0, No Iterations 0
DILUPBiCGStab:  Solving for Ux, Initial residual = 0.039017, Final residual = 2.59203e-07, No Iterations 3
DILUPBiCGStab:  Solving for Uy, Initial residual = 0.0396573, Final residual = 4.23201e-07, No Iterations 3
DILUPBiCGStab:  Solving for Uz, Initial residual = 0.039017, Final residual = 2.59203e-07, No Iterations 3
DILUPBiCGStab:  Solving for h, Initial residual = 0.0605394, Final residual = 8.9257e-07, No Iterations 3
DICPCG:  Solving for p_rgh, Initial residual = 0.152464, Final residual = 0.00104596, No Iterations 10
diagonal:  Solving for rho, Initial residual = 0, Final residual = 0, No Iterations 0
time step continuity errors : sum local = 8.59003e-05, global = -5.4269e-06, cumulative = 0.00137203
DICPCG:  Solving for p_rgh, Initial residual = 0.0890989, Final residual = 7.39527e-09, No Iterations 53
diagonal:  Solving for rho, Initial residual = 0, Final residual = 0, No Iterations 0
time step continuity errors : sum local = 2.40778e-08, global = 3.39888e-09, cumulative = 0.00137204
DILUPBiCGStab:  Solving for epsilon, Initial residual = 0.142078, Final residual = 3.70453e-07, No Iterations 3
DILUPBiCGStab:  Solving for k, Initial residual = 0.176885, Final residual = 1.82327e-07, No Iterations 3
ExecutionTime = 4.91455 s  ClockTime = 5 s

Courant Number mean: 1.02853 max: 2.03511
Time = 22s

diagonal:  Solving for rho, Initial residual = 0, Final residual = 0, No Iterations 0
DILUPBiCGStab:  Solving for Ux, Initial residual = 0.0366006, Final residual = 1.55005e-07, No Iterations 3
DILUPBiCGStab:  Solving for Uy, Initial residual = 0.0360623, Final residual = 2.23383e-07, No Iterations 3
DILUPBiCGStab:  Solving for Uz, Initial residual = 0.0366006, Final residual = 1.55005e-07, No Iterations 3
DILUPBiCGStab:  Solving for h, Initial residual = 0.0527911, Final residual = 4.43693e-07, No Iterations 3
DICPCG:  Solving for p_rgh, Initial residual = 0.136347, Final residual = 0.00124203, No Iterations 9
diagonal:  Solving for rho, Initial residual = 0, Final residual = 0, No Iterations 0
time step continuity errors : sum local = 9.38325e-05, global = -5.08828e-06, cumulative = 0.00136695
DICPCG:  Solving for p_rgh, Initial residual = 0.0784186, Final residual = 6.72744e-09, No Iterations 53
diagonal:  Solving for rho, Initial residual = 0, Final residual = 0, No Iterations 0
time step continuity errors : sum local = 2.65539e-08, global = 2.27398e-09, cumulative = 0.00136695
DILUPBiCGStab:  Solving for epsilon, Initial residual = 0.130329, Final residual = 2.50465e-07, No Iterations 3
DILUPBiCGStab:  Solving for k, Initial residual = 0.165958, Final residual = 1.22148e-07, No Iterations 3
ExecutionTime = 5.32052 s  ClockTime = 6 s

Courant Number mean: 0.964915 max: 1.86394
Time = 24s

diagonal:  Solving for rho, Initial residual = 0, Final residual = 0, No Iterations 0
DILUPBiCGStab:  Solving for Ux, Initial residual = 0.0344174, Final residual = 9.79649e-08, No Iterations 3
DILUPBiCGStab:  Solving for Uy, Initial residual = 0.0333433, Final residual = 1.35945e-07, No Iterations 3
DILUPBiCGStab:  Solving for Uz, Initial residual = 0.0344174, Final residual = 9.79649e-08, No Iterations 3
DILUPBiCGStab:  Solving for h, Initial residual = 0.0470862, Final residual = 3.03364e-07, No Iterations 3
DICPCG:  Solving for p_rgh, Initial residual = 0.123314, Final residual = 0.00081721, No Iterations 13
diagonal:  Solving for rho, Initial residual = 0, Final residual = 0, No Iterations 0
time step continuity errors : sum local = 5.71933e-05, global = -4.78002e-06, cumulative = 0.00136217
DICPCG:  Solving for p_rgh, Initial residual = 0.069214, Final residual = 7.0258e-09, No Iterations 53
diagonal:  Solving for rho, Initial residual = 0, Final residual = 0, No Iterations 0
time step continuity errors : sum local = 1.54204e-08, global = 2.15583e-09, cumulative = 0.00136217
DILUPBiCGStab:  Solving for epsilon, Initial residual = 0.121054, Final residual = 1.74336e-07, No Iterations 3
DILUPBiCGStab:  Solving for k, Initial residual = 0.156749, Final residual = 7.58983e-07, No Iterations 3
ExecutionTime = 5.72775 s  ClockTime = 6 s

Courant Number mean: 0.908279 max: 1.71813
Time = 26s

diagonal:  Solving for rho, Initial residual = 0, Final residual = 0, No Iterations 0
DILUPBiCGStab:  Solving for Ux, Initial residual = 0.0324304, Final residual = 7.3438e-07, No Iterations 3
DILUPBiCGStab:  Solving for Uy, Initial residual = 0.0311477, Final residual = 8.50531e-08, No Iterations 3
DILUPBiCGStab:  Solving for Uz, Initial residual = 0.0324304, Final residual = 7.3438e-07, No Iterations 3
DILUPBiCGStab:  Solving for h, Initial residual = 0.0425842, Final residual = 4.17144e-07, No Iterations 3
DICPCG:  Solving for p_rgh, Initial residual = 0.111508, Final residual = 0.000629361, No Iterations 9
diagonal:  Solving for rho, Initial residual = 0, Final residual = 0, No Iterations 0
time step continuity errors : sum local = 4.10692e-05, global = -4.50512e-06, cumulative = 0.00135767
DICPCG:  Solving for p_rgh, Initial residual = 0.0614672, Final residual = 5.81533e-09, No Iterations 53
diagonal:  Solving for rho, Initial residual = 0, Final residual = 0, No Iterations 0
time step continuity errors : sum local = 1.10655e-08, global = 7.92805e-10, cumulative = 0.00135767
DILUPBiCGStab:  Solving for epsilon, Initial residual = 0.113583, Final residual = 1.24642e-07, No Iterations 3
DILUPBiCGStab:  Solving for k, Initial residual = 0.148754, Final residual = 5.34543e-07, No Iterations 3
ExecutionTime = 6.12236 s  ClockTime = 6 s

Courant Number mean: 0.857604 max: 1.63437
Time = 28s

diagonal:  Solving for rho, Initial residual = 0, Final residual = 0, No Iterations 0
DILUPBiCGStab:  Solving for Ux, Initial residual = 0.0306648, Final residual = 5.2409e-07, No Iterations 3
DILUPBiCGStab:  Solving for Uy, Initial residual = 0.029311, Final residual = 7.01346e-07, No Iterations 3
DILUPBiCGStab:  Solving for Uz, Initial residual = 0.0306648, Final residual = 5.2409e-07, No Iterations 3
DILUPBiCGStab:  Solving for h, Initial residual = 0.0388875, Final residual = 6.09172e-07, No Iterations 3
DICPCG:  Solving for p_rgh, Initial residual = 0.101834, Final residual = 0.000538791, No Iterations 9
diagonal:  Solving for rho, Initial residual = 0, Final residual = 0, No Iterations 0
time step continuity errors : sum local = 3.29549e-05, global = -4.25578e-06, cumulative = 0.00135341
DICPCG:  Solving for p_rgh, Initial residual = 0.0550005, Final residual = 8.76736e-09, No Iterations 53
diagonal:  Solving for rho, Initial residual = 0, Final residual = 0, No Iterations 0
time step continuity errors : sum local = 8.89613e-09, global = 8.84632e-10, cumulative = 0.00135341
DILUPBiCGStab:  Solving for epsilon, Initial residual = 0.107314, Final residual = 9.09051e-08, No Iterations 3
DILUPBiCGStab:  Solving for k, Initial residual = 0.141719, Final residual = 3.84428e-07, No Iterations 3
ExecutionTime = 6.51675 s  ClockTime = 7 s

Courant Number mean: 0.811957 max: 1.57063
Time = 30s

diagonal:  Solving for rho, Initial residual = 0, Final residual = 0, No Iterations 0
DILUPBiCGStab:  Solving for Ux, Initial residual = 0.0290127, Final residual = 3.76604e-07, No Iterations 3
DILUPBiCGStab:  Solving for Uy, Initial residual = 0.0277518, Final residual = 4.94022e-07, No Iterations 3
DILUPBiCGStab:  Solving for Uz, Initial residual = 0.0290127, Final residual = 3.76604e-07, No Iterations 3
DILUPBiCGStab:  Solving for h, Initial residual = 0.0358659, Final residual = 5.52323e-07, No Iterations 3
DICPCG:  Solving for p_rgh, Initial residual = 0.0931748, Final residual = 0.000466552, No Iterations 9
diagonal:  Solving for rho, Initial residual = 0, Final residual = 0, No Iterations 0
time step continuity errors : sum local = 2.68712e-05, global = -4.03239e-06, cumulative = 0.00134938
DICPCG:  Solving for p_rgh, Initial residual = 0.0492625, Final residual = 4.65227e-09, No Iterations 57
diagonal:  Solving for rho, Initial residual = 0, Final residual = 0, No Iterations 0
time step continuity errors : sum local = 7.13326e-09, global = 8.95371e-10, cumulative = 0.00134938
DILUPBiCGStab:  Solving for epsilon, Initial residual = 0.101963, Final residual = 9.86147e-07, No Iterations 2
DILUPBiCGStab:  Solving for k, Initial residual = 0.135387, Final residual = 2.81334e-07, No Iterations 3
ExecutionTime = 6.91666 s  ClockTime = 7 s

Courant Number mean: 0.770713 max: 1.50861
Time = 32s

diagonal:  Solving for rho, Initial residual = 0, Final residual = 0, No Iterations 0
DILUPBiCGStab:  Solving for Ux, Initial residual = 0.0275087, Final residual = 2.73612e-07, No Iterations 3
DILUPBiCGStab:  Solving for Uy, Initial residual = 0.0263589, Final residual = 3.52934e-07, No Iterations 3
DILUPBiCGStab:  Solving for Uz, Initial residual = 0.0275087, Final residual = 2.73612e-07, No Iterations 3
DILUPBiCGStab:  Solving for h, Initial residual = 0.0333636, Final residual = 4.72211e-07, No Iterations 3
DICPCG:  Solving for p_rgh, Initial residual = 0.0858643, Final residual = 0.000822573, No Iterations 8
diagonal:  Solving for rho, Initial residual = 0, Final residual = 0, No Iterations 0
time step continuity errors : sum local = 4.47966e-05, global = -3.83024e-06, cumulative = 0.00134555
DICPCG:  Solving for p_rgh, Initial residual = 0.044314, Final residual = 4.05866e-09, No Iterations 57
diagonal:  Solving for rho, Initial residual = 0, Final residual = 0, No Iterations 0
time step continuity errors : sum local = 1.16268e-08, global = 5.58811e-10, cumulative = 0.00134555
DILUPBiCGStab:  Solving for epsilon, Initial residual = 0.0973654, Final residual = 7.64947e-07, No Iterations 2
DILUPBiCGStab:  Solving for k, Initial residual = 0.129641, Final residual = 2.09323e-07, No Iterations 3
ExecutionTime = 7.31415 s  ClockTime = 8 s

Courant Number mean: 0.733256 max: 1.44859
Time = 34s

diagonal:  Solving for rho, Initial residual = 0, Final residual = 0, No Iterations 0
DILUPBiCGStab:  Solving for Ux, Initial residual = 0.0261472, Final residual = 1.9937e-07, No Iterations 3
DILUPBiCGStab:  Solving for Uy, Initial residual = 0.0251239, Final residual = 2.55613e-07, No Iterations 3
DILUPBiCGStab:  Solving for Uz, Initial residual = 0.0261472, Final residual = 1.9937e-07, No Iterations 3
DILUPBiCGStab:  Solving for h, Initial residual = 0.0312766, Final residual = 4.29753e-07, No Iterations 3
DICPCG:  Solving for p_rgh, Initial residual = 0.0793949, Final residual = 0.000709711, No Iterations 8
diagonal:  Solving for rho, Initial residual = 0, Final residual = 0, No Iterations 0
time step continuity errors : sum local = 3.66565e-05, global = -3.6461e-06, cumulative = 0.00134191
DICPCG:  Solving for p_rgh, Initial residual = 0.040125, Final residual = 9.77506e-09, No Iterations 56
diagonal:  Solving for rho, Initial residual = 0, Final residual = 0, No Iterations 0
time step continuity errors : sum local = 9.50707e-09, global = 7.99304e-10, cumulative = 0.00134191
DILUPBiCGStab:  Solving for epsilon, Initial residual = 0.0933535, Final residual = 5.98531e-07, No Iterations 2
DILUPBiCGStab:  Solving for k, Initial residual = 0.124427, Final residual = 1.58782e-07, No Iterations 3
ExecutionTime = 7.71671 s  ClockTime = 8 s

Courant Number mean: 0.699141 max: 1.39081
Time = 36s

diagonal:  Solving for rho, Initial residual = 0, Final residual = 0, No Iterations 0
DILUPBiCGStab:  Solving for Ux, Initial residual = 0.0248875, Final residual = 1.46193e-07, No Iterations 3
DILUPBiCGStab:  Solving for Uy, Initial residual = 0.0239987, Final residual = 1.87162e-07, No Iterations 3
DILUPBiCGStab:  Solving for Uz, Initial residual = 0.0248875, Final residual = 1.46193e-07, No Iterations 3
DILUPBiCGStab:  Solving for h, Initial residual = 0.0296858, Final residual = 4.46334e-07, No Iterations 3
DICPCG:  Solving for p_rgh, Initial residual = 0.0734701, Final residual = 0.000641724, No Iterations 8
diagonal:  Solving for rho, Initial residual = 0, Final residual = 0, No Iterations 0
time step continuity errors : sum local = 3.15136e-05, global = -3.4794e-06, cumulative = 0.00133843
DICPCG:  Solving for p_rgh, Initial residual = 0.0364018, Final residual = 8.20933e-09, No Iterations 56
diagonal:  Solving for rho, Initial residual = 0, Final residual = 0, No Iterations 0
time step continuity errors : sum local = 8.11903e-09, global = 1.00013e-09, cumulative = 0.00133843
DILUPBiCGStab:  Solving for epsilon, Initial residual = 0.0898055, Final residual = 4.71836e-07, No Iterations 2
DILUPBiCGStab:  Solving for k, Initial residual = 0.119675, Final residual = 1.23264e-07, No Iterations 3
ExecutionTime = 8.16548 s  ClockTime = 9 s

Courant Number mean: 0.667956 max: 1.33543
Time = 38s

diagonal:  Solving for rho, Initial residual = 0, Final residual = 0, No Iterations 0
DILUPBiCGStab:  Solving for Ux, Initial residual = 0.0237393, Final residual = 8.14959e-07, No Iterations 2
DILUPBiCGStab:  Solving for Uy, Initial residual = 0.0229583, Final residual = 8.541e-07, No Iterations 2
DILUPBiCGStab:  Solving for Uz, Initial residual = 0.0237393, Final residual = 8.14959e-07, No Iterations 2
DILUPBiCGStab:  Solving for h, Initial residual = 0.0283967, Final residual = 8.91474e-07, No Iterations 2
DICPCG:  Solving for p_rgh, Initial residual = 0.06842, Final residual = 0.000612146, No Iterations 8
diagonal:  Solving for rho, Initial residual = 0, Final residual = 0, No Iterations 0
time step continuity errors : sum local = 2.86474e-05, global = -3.32771e-06, cumulative = 0.0013351
DICPCG:  Solving for p_rgh, Initial residual = 0.0331058, Final residual = 6.46316e-09, No Iterations 56
diagonal:  Solving for rho, Initial residual = 0, Final residual = 0, No Iterations 0
time step continuity errors : sum local = 7.38421e-09, global = 1.14478e-09, cumulative = 0.0013351
DILUPBiCGStab:  Solving for epsilon, Initial residual = 0.0866206, Final residual = 3.74393e-07, No Iterations 2
DILUPBiCGStab:  Solving for k, Initial residual = 0.115327, Final residual = 9.71654e-08, No Iterations 3
ExecutionTime = 8.57901 s  ClockTime = 9 s

Courant Number mean: 0.639331 max: 1.28257
Time = 40s

diagonal:  Solving for rho, Initial residual = 0, Final residual = 0, No Iterations 0
DILUPBiCGStab:  Solving for Ux, Initial residual = 0.0227, Final residual = 6.18865e-07, No Iterations 2
DILUPBiCGStab:  Solving for Uy, Initial residual = 0.0219996, Final residual = 6.5082e-07, No Iterations 2
DILUPBiCGStab:  Solving for Uz, Initial residual = 0.0227, Final residual = 6.18865e-07, No Iterations 2
DILUPBiCGStab:  Solving for h, Initial residual = 0.0273386, Final residual = 6.8594e-07, No Iterations 2
DICPCG:  Solving for p_rgh, Initial residual = 0.0637784, Final residual = 0.000571498, No Iterations 8
diagonal:  Solving for rho, Initial residual = 0, Final residual = 0, No Iterations 0
time step continuity errors : sum local = 2.55503e-05, global = -3.18915e-06, cumulative = 0.00133191
DICPCG:  Solving for p_rgh, Initial residual = 0.0301561, Final residual = 8.31009e-09, No Iterations 55
diagonal:  Solving for rho, Initial residual = 0, Final residual = 0, No Iterations 0
time step continuity errors : sum local = 6.58974e-09, global = 1.21725e-09, cumulative = 0.00133192
DILUPBiCGStab:  Solving for epsilon, Initial residual = 0.0837493, Final residual = 2.98974e-07, No Iterations 2
DILUPBiCGStab:  Solving for k, Initial residual = 0.111327, Final residual = 7.76366e-08, No Iterations 3
ExecutionTime = 8.96291 s  ClockTime = 9 s

Courant Number mean: 0.612982 max: 1.2323
Time = 42s

diagonal:  Solving for rho, Initial residual = 0, Final residual = 0, No Iterations 0
DILUPBiCGStab:  Solving for Ux, Initial residual = 0.0217525, Final residual = 4.73424e-07, No Iterations 2
DILUPBiCGStab:  Solving for Uy, Initial residual = 0.0211171, Final residual = 5.01134e-07, No Iterations 2
DILUPBiCGStab:  Solving for Uz, Initial residual = 0.0217525, Final residual = 4.73424e-07, No Iterations 2
DILUPBiCGStab:  Solving for h, Initial residual = 0.0264372, Final residual = 5.29942e-07, No Iterations 2
DICPCG:  Solving for p_rgh, Initial residual = 0.059673, Final residual = 0.000562773, No Iterations 8
diagonal:  Solving for rho, Initial residual = 0, Final residual = 0, No Iterations 0
time step continuity errors : sum local = 2.40951e-05, global = -3.06186e-06, cumulative = 0.00132885
DICPCG:  Solving for p_rgh, Initial residual = 0.0275484, Final residual = 8.63895e-09, No Iterations 51
diagonal:  Solving for rho, Initial residual = 0, Final residual = 0, No Iterations 0
time step continuity errors : sum local = 6.20575e-09, global = 1.25306e-09, cumulative = 0.00132885
DILUPBiCGStab:  Solving for epsilon, Initial residual = 0.081133, Final residual = 2.40023e-07, No Iterations 2
DILUPBiCGStab:  Solving for k, Initial residual = 0.10762, Final residual = 8.13666e-07, No Iterations 2
ExecutionTime = 9.33763 s  ClockTime = 10 s

Courant Number mean: 0.588658 max: 1.18461
Time = 44s

diagonal:  Solving for rho, Initial residual = 0, Final residual = 0, No Iterations 0
DILUPBiCGStab:  Solving for Ux, Initial residual = 0.0208817, Final residual = 3.66212e-07, No Iterations 2
DILUPBiCGStab:  Solving for Uy, Initial residual = 0.020301, Final residual = 3.90579e-07, No Iterations 2
DILUPBiCGStab:  Solving for Uz, Initial residual = 0.0208817, Final residual = 3.66213e-07, No Iterations 2
DILUPBiCGStab:  Solving for h, Initial residual = 0.0256559, Final residual = 4.10392e-07, No Iterations 2
DICPCG:  Solving for p_rgh, Initial residual = 0.0560219, Final residual = 0.000537601, No Iterations 8
diagonal:  Solving for rho, Initial residual = 0, Final residual = 0, No Iterations 0
time step continuity errors : sum local = 2.20853e-05, global = -2.94459e-06, cumulative = 0.00132591
DICPCG:  Solving for p_rgh, Initial residual = 0.0252429, Final residual = 6.60118e-09, No Iterations 51
diagonal:  Solving for rho, Initial residual = 0, Final residual = 0, No Iterations 0
time step continuity errors : sum local = 5.6702e-09, global = 1.25726e-09, cumulative = 0.00132591
DILUPBiCGStab:  Solving for epsilon, Initial residual = 0.0787208, Final residual = 1.93611e-07, No Iterations 2
DILUPBiCGStab:  Solving for k, Initial residual = 0.104184, Final residual = 6.53497e-07, No Iterations 2
ExecutionTime = 9.71211 s  ClockTime = 10 s

Courant Number mean: 0.566154 max: 1.13948
Time = 46s

diagonal:  Solving for rho, Initial residual = 0, Final residual = 0, No Iterations 0
DILUPBiCGStab:  Solving for Ux, Initial residual = 0.0200857, Final residual = 2.85259e-07, No Iterations 2
DILUPBiCGStab:  Solving for Uy, Initial residual = 0.0195431, Final residual = 3.07171e-07, No Iterations 2
DILUPBiCGStab:  Solving for Uz, Initial residual = 0.0200857, Final residual = 2.85259e-07, No Iterations 2
DILUPBiCGStab:  Solving for h, Initial residual = 0.0249666, Final residual = 3.18915e-07, No Iterations 2
DICPCG:  Solving for p_rgh, Initial residual = 0.0529615, Final residual = 0.00028095, No Iterations 9
diagonal:  Solving for rho, Initial residual = 0, Final residual = 0, No Iterations 0
time step continuity errors : sum local = 1.10938e-05, global = -2.83625e-06, cumulative = 0.00132308
DICPCG:  Solving for p_rgh, Initial residual = 0.0232128, Final residual = 5.29124e-09, No Iterations 55
diagonal:  Solving for rho, Initial residual = 0, Final residual = 0, No Iterations 0
time step continuity errors : sum local = 2.95772e-09, global = 8.68695e-10, cumulative = 0.00132308
DILUPBiCGStab:  Solving for epsilon, Initial residual = 0.0764781, Final residual = 1.56881e-07, No Iterations 2
DILUPBiCGStab:  Solving for k, Initial residual = 0.100993, Final residual = 5.27268e-07, No Iterations 2
ExecutionTime = 10.0945 s  ClockTime = 11 s

Courant Number mean: 0.545256 max: 1.09684
Time = 48s

diagonal:  Solving for rho, Initial residual = 0, Final residual = 0, No Iterations 0
DILUPBiCGStab:  Solving for Ux, Initial residual = 0.0193465, Final residual = 2.24185e-07, No Iterations 2
DILUPBiCGStab:  Solving for Uy, Initial residual = 0.0188434, Final residual = 2.43637e-07, No Iterations 2
DILUPBiCGStab:  Solving for Uz, Initial residual = 0.0193465, Final residual = 2.24185e-07, No Iterations 2
DILUPBiCGStab:  Solving for h, Initial residual = 0.0243359, Final residual = 2.48855e-07, No Iterations 2
DICPCG:  Solving for p_rgh, Initial residual = 0.0498739, Final residual = 0.000264128, No Iterations 9
diagonal:  Solving for rho, Initial residual = 0, Final residual = 0, No Iterations 0
time step continuity errors : sum local = 1.00403e-05, global = -2.73526e-06, cumulative = 0.00132034
DICPCG:  Solving for p_rgh, Initial residual = 0.0213912, Final residual = 5.17655e-09, No Iterations 51
diagonal:  Solving for rho, Initial residual = 0, Final residual = 0, No Iterations 0
time step continuity errors : sum local = 2.66343e-09, global = 8.36551e-10, cumulative = 0.00132034
DILUPBiCGStab:  Solving for epsilon, Initial residual = 0.0743846, Final residual = 1.27685e-07, No Iterations 2
DILUPBiCGStab:  Solving for k, Initial residual = 0.0980132, Final residual = 4.27328e-07, No Iterations 2
ExecutionTime = 10.4696 s  ClockTime = 11 s

Courant Number mean: 0.525829 max: 1.05659
Time = 50s

diagonal:  Solving for rho, Initial residual = 0, Final residual = 0, No Iterations 0
DILUPBiCGStab:  Solving for Ux, Initial residual = 0.0186602, Final residual = 1.76959e-07, No Iterations 2
DILUPBiCGStab:  Solving for Uy, Initial residual = 0.0181885, Final residual = 1.947e-07, No Iterations 2
DILUPBiCGStab:  Solving for Uz, Initial residual = 0.0186602, Final residual = 1.76959e-07, No Iterations 2
DILUPBiCGStab:  Solving for h, Initial residual = 0.0237655, Final residual = 1.95049e-07, No Iterations 2
DICPCG:  Solving for p_rgh, Initial residual = 0.0471329, Final residual = 0.000255015, No Iterations 9
diagonal:  Solving for rho, Initial residual = 0, Final residual = 0, No Iterations 0
time step continuity errors : sum local = 9.34617e-06, global = -2.64169e-06, cumulative = 0.0013177
DICPCG:  Solving for p_rgh, Initial residual = 0.0197302, Final residual = 5.31871e-09, No Iterations 51
diagonal:  Solving for rho, Initial residual = 0, Final residual = 0, No Iterations 0
time step continuity errors : sum local = 2.47835e-09, global = 7.95065e-10, cumulative = 0.0013177
DILUPBiCGStab:  Solving for epsilon, Initial residual = 0.0724272, Final residual = 1.04348e-07, No Iterations 2
DILUPBiCGStab:  Solving for k, Initial residual = 0.0952155, Final residual = 3.47928e-07, No Iterations 2
ExecutionTime = 10.8463 s  ClockTime = 11 s

Courant Number mean: 0.507708 max: 1.01866
Time = 52s

diagonal:  Solving for rho, Initial residual = 0, Final residual = 0, No Iterations 0
DILUPBiCGStab:  Solving for Ux, Initial residual = 0.0180259, Final residual = 1.40696e-07, No Iterations 2
DILUPBiCGStab:  Solving for Uy, Initial residual = 0.0175801, Final residual = 1.56559e-07, No Iterations 2
DILUPBiCGStab:  Solving for Uz, Initial residual = 0.0180259, Final residual = 1.40696e-07, No Iterations 2
DILUPBiCGStab:  Solving for h, Initial residual = 0.0232414, Final residual = 1.5365e-07, No Iterations 2
DICPCG:  Solving for p_rgh, Initial residual = 0.0443695, Final residual = 0.000243226, No Iterations 9
diagonal:  Solving for rho, Initial residual = 0, Final residual = 0, No Iterations 0
time step continuity errors : sum local = 8.60995e-06, global = -2.55456e-06, cumulative = 0.00131515
DICPCG:  Solving for p_rgh, Initial residual = 0.0182297, Final residual = 4.67804e-09, No Iterations 51
diagonal:  Solving for rho, Initial residual = 0, Final residual = 0, No Iterations 0
time step continuity errors : sum local = 2.26754e-09, global = 7.60939e-10, cumulative = 0.00131515
DILUPBiCGStab:  Solving for epsilon, Initial residual = 0.0705985, Final residual = 8.56193e-08, No Iterations 2
DILUPBiCGStab:  Solving for k, Initial residual = 0.0925849, Final residual = 2.84478e-07, No Iterations 2
ExecutionTime = 11.225 s  ClockTime = 12 s

Courant Number mean: 0.490759 max: 0.982909
Time = 54s

diagonal:  Solving for rho, Initial residual = 0, Final residual = 0, No Iterations 0
DILUPBiCGStab:  Solving for Ux, Initial residual = 0.0174357, Final residual = 1.12513e-07, No Iterations 2
DILUPBiCGStab:  Solving for Uy, Initial residual = 0.0170185, Final residual = 1.26626e-07, No Iterations 2
DILUPBiCGStab:  Solving for Uz, Initial residual = 0.0174357, Final residual = 1.12513e-07, No Iterations 2
DILUPBiCGStab:  Solving for h, Initial residual = 0.0227507, Final residual = 1.21777e-07, No Iterations 2
DICPCG:  Solving for p_rgh, Initial residual = 0.0419281, Final residual = 0.000236374, No Iterations 9
diagonal:  Solving for rho, Initial residual = 0, Final residual = 0, No Iterations 0
time step continuity errors : sum local = 8.09445e-06, global = -2.47321e-06, cumulative = 0.00131267
DICPCG:  Solving for p_rgh, Initial residual = 0.0168858, Final residual = 7.14164e-09, No Iterations 51
diagonal:  Solving for rho, Initial residual = 0, Final residual = 0, No Iterations 0
time step continuity errors : sum local = 2.14042e-09, global = 7.24064e-10, cumulative = 0.00131267
DILUPBiCGStab:  Solving for epsilon, Initial residual = 0.0688839, Final residual = 7.05272e-08, No Iterations 2
DILUPBiCGStab:  Solving for k, Initial residual = 0.0901096, Final residual = 2.33493e-07, No Iterations 2
ExecutionTime = 11.602 s  ClockTime = 12 s

Courant Number mean: 0.474871 max: 0.949219
Time = 56s

diagonal:  Solving for rho, Initial residual = 0, Final residual = 0, No Iterations 0
DILUPBiCGStab:  Solving for Ux, Initial residual = 0.0168877, Final residual = 9.04605e-08, No Iterations 2
DILUPBiCGStab:  Solving for Uy, Initial residual = 0.0164954, Final residual = 1.02934e-07, No Iterations 2
DILUPBiCGStab:  Solving for Uz, Initial residual = 0.0168877, Final residual = 9.04604e-08, No Iterations 2
DILUPBiCGStab:  Solving for h, Initial residual = 0.0222883, Final residual = 9.71191e-08, No Iterations 2
DICPCG:  Solving for p_rgh, Initial residual = 0.0396852, Final residual = 0.000229208, No Iterations 9
diagonal:  Solving for rho, Initial residual = 0, Final residual = 0, No Iterations 0
time step continuity errors : sum local = 7.60142e-06, global = -2.39705e-06, cumulative = 0.00131028
DICPCG:  Solving for p_rgh, Initial residual = 0.0156738, Final residual = 9.10647e-09, No Iterations 51
diagonal:  Solving for rho, Initial residual = 0, Final residual = 0, No Iterations 0
time step continuity errors : sum local = 2.02254e-09, global = 6.92168e-10, cumulative = 0.00131028
DILUPBiCGStab:  Solving for epsilon, Initial residual = 0.0672757, Final residual = 5.83108e-08, No Iterations 2
DILUPBiCGStab:  Solving for k, Initial residual = 0.0877772, Final residual = 1.92362e-07, No Iterations 2
ExecutionTime = 11.9796 s  ClockTime = 13 s

Courant Number mean: 0.459945 max: 0.917467
Time = 58s

diagonal:  Solving for rho, Initial residual = 0, Final residual = 0, No Iterations 0
DILUPBiCGStab:  Solving for Ux, Initial residual = 0.0163778, Final residual = 7.30442e-08, No Iterations 2
DILUPBiCGStab:  Solving for Uy, Initial residual = 0.0160058, Final residual = 8.40197e-08, No Iterations 2
DILUPBiCGStab:  Solving for Uz, Initial residual = 0.0163778, Final residual = 7.30442e-08, No Iterations 2
DILUPBiCGStab:  Solving for h, Initial residual = 0.0218506, Final residual = 7.79357e-08, No Iterations 2
DICPCG:  Solving for p_rgh, Initial residual = 0.0376758, Final residual = 0.00022115, No Iterations 9
diagonal:  Solving for rho, Initial residual = 0, Final residual = 0, No Iterations 0
time step continuity errors : sum local = 7.10874e-06, global = -2.32559e-06, cumulative = 0.00130795
DICPCG:  Solving for p_rgh, Initial residual = 0.0145911, Final residual = 6.26282e-09, No Iterations 51
diagonal:  Solving for rho, Initial residual = 0, Final residual = 0, No Iterations 0
time step continuity errors : sum local = 1.87322e-09, global = 6.66036e-10, cumulative = 0.00130795
DILUPBiCGStab:  Solving for epsilon, Initial residual = 0.0657646, Final residual = 4.83855e-08, No Iterations 2
DILUPBiCGStab:  Solving for k, Initial residual = 0.0855759, Final residual = 1.59057e-07, No Iterations 2
ExecutionTime = 12.3636 s  ClockTime = 13 s

Courant Number mean: 0.445896 max: 0.887534
Time = 60s

diagonal:  Solving for rho, Initial residual = 0, Final residual = 0, No Iterations 0
DILUPBiCGStab:  Solving for Ux, Initial residual = 0.015902, Final residual = 5.92174e-08, No Iterations 2
DILUPBiCGStab:  Solving for Uy, Initial residual = 0.0155466, Final residual = 6.88681e-08, No Iterations 2
DILUPBiCGStab:  Solving for Uz, Initial residual = 0.015902, Final residual = 5.92174e-08, No Iterations 2
DILUPBiCGStab:  Solving for h, Initial residual = 0.021432, Final residual = 6.29745e-08, No Iterations 2
DICPCG:  Solving for p_rgh, Initial residual = 0.0358479, Final residual = 0.000215534, No Iterations 9
diagonal:  Solving for rho, Initial residual = 0, Final residual = 0, No Iterations 0
time step continuity errors : sum local = 6.72105e-06, global = -2.2584e-06, cumulative = 0.00130569
DICPCG:  Solving for p_rgh, Initial residual = 0.0136046, Final residual = 9.05486e-09, No Iterations 54
diagonal:  Solving for rho, Initial residual = 0, Final residual = 0, No Iterations 0
time step continuity errors : sum local = 1.77719e-09, global = 6.39249e-10, cumulative = 0.0013057
DILUPBiCGStab:  Solving for epsilon, Initial residual = 0.0643412, Final residual = 4.02937e-08, No Iterations 2
DILUPBiCGStab:  Solving for k, Initial residual = 0.0834938, Final residual = 1.31989e-07, No Iterations 2
ExecutionTime = 12.7676 s  ClockTime = 13 s

Courant Number mean: 0.432642 max: 0.859302
Time = 62s

diagonal:  Solving for rho, Initial residual = 0, Final residual = 0, No Iterations 0
DILUPBiCGStab:  Solving for Ux, Initial residual = 0.015457, Final residual = 4.82059e-08, No Iterations 2
DILUPBiCGStab:  Solving for Uy, Initial residual = 0.0151162, Final residual = 5.66661e-08, No Iterations 2
DILUPBiCGStab:  Solving for Uz, Initial residual = 0.015457, Final residual = 4.82059e-08, No Iterations 2
DILUPBiCGStab:  Solving for h, Initial residual = 0.0210302, Final residual = 5.12409e-08, No Iterations 2
DICPCG:  Solving for p_rgh, Initial residual = 0.0341619, Final residual = 0.000210002, No Iterations 9
diagonal:  Solving for rho, Initial residual = 0, Final residual = 0, No Iterations 0
time step continuity errors : sum local = 6.35815e-06, global = -2.19509e-06, cumulative = 0.0013035
DICPCG:  Solving for p_rgh, Initial residual = 0.012712, Final residual = 9.2891e-09, No Iterations 50
diagonal:  Solving for rho, Initial residual = 0, Final residual = 0, No Iterations 0
time step continuity errors : sum local = 1.69407e-09, global = 6.15076e-10, cumulative = 0.0013035
DILUPBiCGStab:  Solving for epsilon, Initial residual = 0.0629977, Final residual = 3.36698e-08, No Iterations 2
DILUPBiCGStab:  Solving for k, Initial residual = 0.0815215, Final residual = 1.09911e-07, No Iterations 2
ExecutionTime = 13.1488 s  ClockTime = 14 s

Courant Number mean: 0.420118 max: 0.832658
Time = 64s

diagonal:  Solving for rho, Initial residual = 0, Final residual = 0, No Iterations 0
DILUPBiCGStab:  Solving for Ux, Initial residual = 0.0150406, Final residual = 8.6101e-07, No Iterations 2
DILUPBiCGStab:  Solving for Uy, Initial residual = 0.0147133, Final residual = 9.89815e-07, No Iterations 2
DILUPBiCGStab:  Solving for Uz, Initial residual = 0.0150406, Final residual = 8.6101e-07, No Iterations 2
DILUPBiCGStab:  Solving for h, Initial residual = 0.0206483, Final residual = 9.96892e-07, No Iterations 2
DICPCG:  Solving for p_rgh, Initial residual = 0.0326507, Final residual = 0.000203746, No Iterations 9
diagonal:  Solving for rho, Initial residual = 0, Final residual = 0, No Iterations 0
time step continuity errors : sum local = 5.99434e-06, global = -2.1353e-06, cumulative = 0.00130137
DICPCG:  Solving for p_rgh, Initial residual = 0.0119009, Final residual = 8.54477e-09, No Iterations 50
diagonal:  Solving for rho, Initial residual = 0, Final residual = 0, No Iterations 0
time step continuity errors : sum local = 1.59338e-09, global = 5.95164e-10, cumulative = 0.00130137
DILUPBiCGStab:  Solving for epsilon, Initial residual = 0.061729, Final residual = 9.36245e-07, No Iterations 2
DILUPBiCGStab:  Solving for k, Initial residual = 0.07965, Final residual = 9.18405e-08, No Iterations 2
ExecutionTime = 13.5165 s  ClockTime = 14 s

Courant Number mean: 0.408262 max: 0.807493
Time = 66s

diagonal:  Solving for rho, Initial residual = 0, Final residual = 0, No Iterations 0
DILUPBiCGStab:  Solving for Ux, Initial residual = 0.0146516, Final residual = 7.29055e-07, No Iterations 2
DILUPBiCGStab:  Solving for Uy, Initial residual = 0.0143389, Final residual = 8.49422e-07, No Iterations 2
DILUPBiCGStab:  Solving for Uz, Initial residual = 0.0146516, Final residual = 7.29055e-07, No Iterations 2
DILUPBiCGStab:  Solving for h, Initial residual = 0.0202778, Final residual = 8.62179e-07, No Iterations 2
DICPCG:  Solving for p_rgh, Initial residual = 0.0312025, Final residual = 0.00020195, No Iterations 9
diagonal:  Solving for rho, Initial residual = 0, Final residual = 0, No Iterations 0
time step continuity errors : sum local = 5.77949e-06, global = -2.07878e-06, cumulative = 0.00129929
DICPCG:  Solving for p_rgh, Initial residual = 0.0111576, Final residual = 7.81013e-09, No Iterations 50
diagonal:  Solving for rho, Initial residual = 0, Final residual = 0, No Iterations 0
time step continuity errors : sum local = 1.53353e-09, global = 5.68531e-10, cumulative = 0.00129929
DILUPBiCGStab:  Solving for epsilon, Initial residual = 0.060527, Final residual = 8.17662e-07, No Iterations 2
DILUPBiCGStab:  Solving for k, Initial residual = 0.0778698, Final residual = 7.69993e-08, No Iterations 2
ExecutionTime = 13.8835 s  ClockTime = 15 s

Courant Number mean: 0.397028 max: 0.783703
Time = 68s

diagonal:  Solving for rho, Initial residual = 0, Final residual = 0, No Iterations 0
DILUPBiCGStab:  Solving for Ux, Initial residual = 0.0142863, Final residual = 6.20058e-07, No Iterations 2
DILUPBiCGStab:  Solving for Uy, Initial residual = 0.0139922, Final residual = 7.31473e-07, No Iterations 2
DILUPBiCGStab:  Solving for Uz, Initial residual = 0.0142863, Final residual = 6.20058e-07, No Iterations 2
DILUPBiCGStab:  Solving for h, Initial residual = 0.0199213, Final residual = 7.47953e-07, No Iterations 2
DICPCG:  Solving for p_rgh, Initial residual = 0.0299225, Final residual = 0.000195008, No Iterations 9
diagonal:  Solving for rho, Initial residual = 0, Final residual = 0, No Iterations 0
time step continuity errors : sum local = 5.43398e-06, global = -2.02526e-06, cumulative = 0.00129726
DICPCG:  Solving for p_rgh, Initial residual = 0.0104702, Final residual = 8.98221e-09, No Iterations 48
diagonal:  Solving for rho, Initial residual = 0, Final residual = 0, No Iterations 0
time step continuity errors : sum local = 1.45904e-09, global = 5.56267e-10, cumulative = 0.00129726
DILUPBiCGStab:  Solving for epsilon, Initial residual = 0.0593876, Final residual = 7.15938e-07, No Iterations 2
DILUPBiCGStab:  Solving for k, Initial residual = 0.0761743, Final residual = 6.47498e-08, No Iterations 2
ExecutionTime = 14.2462 s  ClockTime = 15 s

Courant Number mean: 0.386363 max: 0.761194
Time = 70s

diagonal:  Solving for rho, Initial residual = 0, Final residual = 0, No Iterations 0
DILUPBiCGStab:  Solving for Ux, Initial residual = 0.0139445, Final residual = 5.28977e-07, No Iterations 2
DILUPBiCGStab:  Solving for Uy, Initial residual = 0.0136685, Final residual = 6.32041e-07, No Iterations 2
DILUPBiCGStab:  Solving for Uz, Initial residual = 0.0139445, Final residual = 5.28977e-07, No Iterations 2
DILUPBiCGStab:  Solving for h, Initial residual = 0.0195725, Final residual = 6.50223e-07, No Iterations 2
DICPCG:  Solving for p_rgh, Initial residual = 0.0287927, Final residual = 0.000193367, No Iterations 9
diagonal:  Solving for rho, Initial residual = 0, Final residual = 0, No Iterations 0
time step continuity errors : sum local = 5.25049e-06, global = -1.97449e-06, cumulative = 0.00129529
DICPCG:  Solving for p_rgh, Initial residual = 0.00983767, Final residual = 6.15978e-09, No Iterations 50
diagonal:  Solving for rho, Initial residual = 0, Final residual = 0, No Iterations 0
time step continuity errors : sum local = 1.39358e-09, global = 5.36428e-10, cumulative = 0.00129529
DILUPBiCGStab:  Solving for epsilon, Initial residual = 0.0583078, Final residual = 6.28356e-07, No Iterations 2
DILUPBiCGStab:  Solving for k, Initial residual = 0.0745563, Final residual = 5.46029e-08, No Iterations 2
ExecutionTime = 14.6143 s  ClockTime = 15 s

Courant Number mean: 0.376219 max: 0.739876
Time = 72s

diagonal:  Solving for rho, Initial residual = 0, Final residual = 0, No Iterations 0
DILUPBiCGStab:  Solving for Ux, Initial residual = 0.0136227, Final residual = 4.53196e-07, No Iterations 2
DILUPBiCGStab:  Solving for Uy, Initial residual = 0.0133639, Final residual = 5.47848e-07, No Iterations 2
DILUPBiCGStab:  Solving for Uz, Initial residual = 0.0136227, Final residual = 4.53196e-07, No Iterations 2
DILUPBiCGStab:  Solving for h, Initial residual = 0.0192338, Final residual = 5.66637e-07, No Iterations 2
DICPCG:  Solving for p_rgh, Initial residual = 0.0275429, Final residual = 0.000187986, No Iterations 9
diagonal:  Solving for rho, Initial residual = 0, Final residual = 0, No Iterations 0
time step continuity errors : sum local = 4.97814e-06, global = -1.92617e-06, cumulative = 0.00129336
DICPCG:  Solving for p_rgh, Initial residual = 0.00926233, Final residual = 7.83422e-09, No Iterations 48
diagonal:  Solving for rho, Initial residual = 0, Final residual = 0, No Iterations 0
time step continuity errors : sum local = 1.33538e-09, global = 5.2037e-10, cumulative = 0.00129336
DILUPBiCGStab:  Solving for epsilon, Initial residual = 0.0572822, Final residual = 5.52821e-07, No Iterations 2
DILUPBiCGStab:  Solving for k, Initial residual = 0.0730096, Final residual = 4.61721e-08, No Iterations 2
ExecutionTime = 14.9777 s  ClockTime = 16 s

Courant Number mean: 0.366556 max: 0.719665
Time = 74s

diagonal:  Solving for rho, Initial residual = 0, Final residual = 0, No Iterations 0
DILUPBiCGStab:  Solving for Ux, Initial residual = 0.0133209, Final residual = 3.89818e-07, No Iterations 2
DILUPBiCGStab:  Solving for Uy, Initial residual = 0.013078, Final residual = 4.76324e-07, No Iterations 2
DILUPBiCGStab:  Solving for Uz, Initial residual = 0.0133209, Final residual = 3.89818e-07, No Iterations 2
DILUPBiCGStab:  Solving for h, Initial residual = 0.0189126, Final residual = 4.9488e-07, No Iterations 2
DICPCG:  Solving for p_rgh, Initial residual = 0.0264326, Final residual = 0.000183908, No Iterations 9
diagonal:  Solving for rho, Initial residual = 0, Final residual = 0, No Iterations 0
time step continuity errors : sum local = 4.75352e-06, global = -1.88022e-06, cumulative = 0.00129148
DICPCG:  Solving for p_rgh, Initial residual = 0.00873285, Final residual = 6.99426e-09, No Iterations 50
diagonal:  Solving for rho, Initial residual = 0, Final residual = 0, No Iterations 0
time step continuity errors : sum local = 1.26793e-09, global = 5.05779e-10, cumulative = 0.00129148
DILUPBiCGStab:  Solving for epsilon, Initial residual = 0.056307, Final residual = 4.87474e-07, No Iterations 2
DILUPBiCGStab:  Solving for k, Initial residual = 0.0715295, Final residual = 3.91468e-08, No Iterations 2
ExecutionTime = 15.3454 s  ClockTime = 16 s

Courant Number mean: 0.357337 max: 0.700484
Time = 76s

diagonal:  Solving for rho, Initial residual = 0, Final residual = 0, No Iterations 0
DILUPBiCGStab:  Solving for Ux, Initial residual = 0.0130387, Final residual = 3.36499e-07, No Iterations 2
DILUPBiCGStab:  Solving for Uy, Initial residual = 0.0128109, Final residual = 4.15333e-07, No Iterations 2
DILUPBiCGStab:  Solving for Uz, Initial residual = 0.0130387, Final residual = 3.36499e-07, No Iterations 2
DILUPBiCGStab:  Solving for h, Initial residual = 0.0186016, Final residual = 4.33143e-07, No Iterations 2
DICPCG:  Solving for p_rgh, Initial residual = 0.0254105, Final residual = 0.000180173, No Iterations 9
diagonal:  Solving for rho, Initial residual = 0, Final residual = 0, No Iterations 0
time step continuity errors : sum local = 4.54863e-06, global = -1.83644e-06, cumulative = 0.00128965
DICPCG:  Solving for p_rgh, Initial residual = 0.00823786, Final residual = 8.69851e-09, No Iterations 50
diagonal:  Solving for rho, Initial residual = 0, Final residual = 0, No Iterations 0
time step continuity errors : sum local = 1.22672e-09, global = 4.91864e-10, cumulative = 0.00128965
DILUPBiCGStab:  Solving for epsilon, Initial residual = 0.0553773, Final residual = 4.30791e-07, No Iterations 2
DILUPBiCGStab:  Solving for k, Initial residual = 0.0701119, Final residual = 3.32779e-08, No Iterations 2
ExecutionTime = 15.7572 s  ClockTime = 17 s

Courant Number mean: 0.348528 max: 0.68226
Time = 78s

diagonal:  Solving for rho, Initial residual = 0, Final residual = 0, No Iterations 0
DILUPBiCGStab:  Solving for Ux, Initial residual = 0.0127738, Final residual = 2.91641e-07, No Iterations 2
DILUPBiCGStab:  Solving for Uy, Initial residual = 0.012561, Final residual = 3.63261e-07, No Iterations 2
DILUPBiCGStab:  Solving for Uz, Initial residual = 0.0127738, Final residual = 2.91641e-07, No Iterations 2
DILUPBiCGStab:  Solving for h, Initial residual = 0.0182991, Final residual = 3.79944e-07, No Iterations 2
DICPCG:  Solving for p_rgh, Initial residual = 0.0244434, Final residual = 0.000176969, No Iterations 9
diagonal:  Solving for rho, Initial residual = 0, Final residual = 0, No Iterations 0
time step continuity errors : sum local = 4.36679e-06, global = -1.79468e-06, cumulative = 0.00128785
DICPCG:  Solving for p_rgh, Initial residual = 0.00778451, Final residual = 5.25613e-09, No Iterations 54
diagonal:  Solving for rho, Initial residual = 0, Final residual = 0, No Iterations 0
time step continuity errors : sum local = 1.15292e-09, global = 4.78264e-10, cumulative = 0.00128785
DILUPBiCGStab:  Solving for epsilon, Initial residual = 0.0544915, Final residual = 3.81472e-07, No Iterations 2
DILUPBiCGStab:  Solving for k, Initial residual = 0.0687518, Final residual = 9.00799e-07, No Iterations 2
ExecutionTime = 16.1348 s  ClockTime = 17 s

Courant Number mean: 0.340101 max: 0.664927
Time = 80s

diagonal:  Solving for rho, Initial residual = 0, Final residual = 0, No Iterations 0
DILUPBiCGStab:  Solving for Ux, Initial residual = 0.0125261, Final residual = 2.53686e-07, No Iterations 2
DILUPBiCGStab:  Solving for Uy, Initial residual = 0.0123266, Final residual = 3.18561e-07, No Iterations 2
DILUPBiCGStab:  Solving for Uz, Initial residual = 0.0125261, Final residual = 2.53686e-07, No Iterations 2
DILUPBiCGStab:  Solving for h, Initial residual = 0.0180059, Final residual = 3.33851e-07, No Iterations 2
DICPCG:  Solving for p_rgh, Initial residual = 0.0235418, Final residual = 0.000173202, No Iterations 9
diagonal:  Solving for rho, Initial residual = 0, Final residual = 0, No Iterations 0
time step continuity errors : sum local = 4.17993e-06, global = -1.75481e-06, cumulative = 0.0012861
DICPCG:  Solving for p_rgh, Initial residual = 0.00736253, Final residual = 9.16376e-09, No Iterations 53
diagonal:  Solving for rho, Initial residual = 0, Final residual = 0, No Iterations 0
time step continuity errors : sum local = 1.13715e-09, global = 4.66281e-10, cumulative = 0.0012861
DILUPBiCGStab:  Solving for epsilon, Initial residual = 0.0536455, Final residual = 3.38498e-07, No Iterations 2
DILUPBiCGStab:  Solving for k, Initial residual = 0.0674441, Final residual = 7.94959e-07, No Iterations 2
ExecutionTime = 16.5102 s  ClockTime = 17 s

Courant Number mean: 0.332028 max: 0.648423
Time = 82s

diagonal:  Solving for rho, Initial residual = 0, Final residual = 0, No Iterations 0
DILUPBiCGStab:  Solving for Ux, Initial residual = 0.0122937, Final residual = 2.21447e-07, No Iterations 2
DILUPBiCGStab:  Solving for Uy, Initial residual = 0.0121068, Final residual = 2.80114e-07, No Iterations 2
DILUPBiCGStab:  Solving for Uz, Initial residual = 0.0122937, Final residual = 2.21447e-07, No Iterations 2
DILUPBiCGStab:  Solving for h, Initial residual = 0.0177246, Final residual = 2.93932e-07, No Iterations 2
DICPCG:  Solving for p_rgh, Initial residual = 0.0227966, Final residual = 0.000170726, No Iterations 9
diagonal:  Solving for rho, Initial residual = 0, Final residual = 0, No Iterations 0
time step continuity errors : sum local = 4.03232e-06, global = -1.71671e-06, cumulative = 0.00128438
DICPCG:  Solving for p_rgh, Initial residual = 0.00696771, Final residual = 5.97578e-09, No Iterations 50
diagonal:  Solving for rho, Initial residual = 0, Final residual = 0, No Iterations 0
time step continuity errors : sum local = 1.08018e-09, global = 4.55709e-10, cumulative = 0.00128438
DILUPBiCGStab:  Solving for epsilon, Initial residual = 0.0528372, Final residual = 3.00953e-07, No Iterations 2
DILUPBiCGStab:  Solving for k, Initial residual = 0.0661861, Final residual = 7.02882e-07, No Iterations 2
ExecutionTime = 16.8953 s  ClockTime = 18 s

Courant Number mean: 0.324286 max: 0.632692
Time = 84s

diagonal:  Solving for rho, Initial residual = 0, Final residual = 0, No Iterations 0
DILUPBiCGStab:  Solving for Ux, Initial residual = 0.0120759, Final residual = 1.93889e-07, No Iterations 2
DILUPBiCGStab:  Solving for Uy, Initial residual = 0.0119007, Final residual = 2.47004e-07, No Iterations 2
DILUPBiCGStab:  Solving for Uz, Initial residual = 0.0120759, Final residual = 1.93889e-07, No Iterations 2
DILUPBiCGStab:  Solving for h, Initial residual = 0.0174522, Final residual = 2.59258e-07, No Iterations 2
DICPCG:  Solving for p_rgh, Initial residual = 0.0220272, Final residual = 0.000167148, No Iterations 9
diagonal:  Solving for rho, Initial residual = 0, Final residual = 0, No Iterations 0
time step continuity errors : sum local = 3.86616e-06, global = -1.68022e-06, cumulative = 0.0012827
DICPCG:  Solving for p_rgh, Initial residual = 0.00660535, Final residual = 5.74736e-09, No Iterations 50
diagonal:  Solving for rho, Initial residual = 0, Final residual = 0, No Iterations 0
time step continuity errors : sum local = 1.03646e-09, global = 4.45536e-10, cumulative = 0.0012827
DILUPBiCGStab:  Solving for epsilon, Initial residual = 0.0520643, Final residual = 2.68062e-07, No Iterations 2
DILUPBiCGStab:  Solving for k, Initial residual = 0.0649739, Final residual = 6.22527e-07, No Iterations 2
ExecutionTime = 17.2674 s  ClockTime = 18 s

Courant Number mean: 0.31685 max: 0.617681
Time = 86s

diagonal:  Solving for rho, Initial residual = 0, Final residual = 0, No Iterations 0
DILUPBiCGStab:  Solving for Ux, Initial residual = 0.0118722, Final residual = 1.70297e-07, No Iterations 2
DILUPBiCGStab:  Solving for Uy, Initial residual = 0.011707, Final residual = 2.18353e-07, No Iterations 2
DILUPBiCGStab:  Solving for Uz, Initial residual = 0.0118722, Final residual = 1.70296e-07, No Iterations 2
DILUPBiCGStab:  Solving for h, Initial residual = 0.0171879, Final residual = 2.29056e-07, No Iterations 2
DICPCG:  Solving for p_rgh, Initial residual = 0.0212197, Final residual = 0.000164323, No Iterations 9
diagonal:  Solving for rho, Initial residual = 0, Final residual = 0, No Iterations 0
time step continuity errors : sum local = 3.72394e-06, global = -1.64524e-06, cumulative = 0.00128106
DICPCG:  Solving for p_rgh, Initial residual = 0.00626791, Final residual = 9.70475e-09, No Iterations 49
diagonal:  Solving for rho, Initial residual = 0, Final residual = 0, No Iterations 0
time step continuity errors : sum local = 1.01612e-09, global = 4.34285e-10, cumulative = 0.00128106
DILUPBiCGStab:  Solving for epsilon, Initial residual = 0.0513238, Final residual = 2.39192e-07, No Iterations 2
DILUPBiCGStab:  Solving for k, Initial residual = 0.0638057, Final residual = 5.52392e-07, No Iterations 2
ExecutionTime = 17.6386 s  ClockTime = 19 s

Courant Number mean: 0.309699 max: 0.603339
Time = 88s

diagonal:  Solving for rho, Initial residual = 0, Final residual = 0, No Iterations 0
DILUPBiCGStab:  Solving for Ux, Initial residual = 0.0116815, Final residual = 1.50059e-07, No Iterations 2
DILUPBiCGStab:  Solving for Uy, Initial residual = 0.0115252, Final residual = 1.93474e-07, No Iterations 2
DILUPBiCGStab:  Solving for Uz, Initial residual = 0.0116815, Final residual = 1.50059e-07, No Iterations 2
DILUPBiCGStab:  Solving for h, Initial residual = 0.0169308, Final residual = 2.02742e-07, No Iterations 2
DICPCG:  Solving for p_rgh, Initial residual = 0.0205072, Final residual = 0.000160965, No Iterations 9
diagonal:  Solving for rho, Initial residual = 0, Final residual = 0, No Iterations 0
time step continuity errors : sum local = 3.57559e-06, global = -1.61171e-06, cumulative = 0.00127945
DICPCG:  Solving for p_rgh, Initial residual = 0.00595256, Final residual = 8.8697e-09, No Iterations 53
diagonal:  Solving for rho, Initial residual = 0, Final residual = 0, No Iterations 0
time step continuity errors : sum local = 9.81918e-10, global = 4.2552e-10, cumulative = 0.00127945
DILUPBiCGStab:  Solving for epsilon, Initial residual = 0.0506144, Final residual = 2.1382e-07, No Iterations 2
DILUPBiCGStab:  Solving for k, Initial residual = 0.0626786, Final residual = 4.91036e-07, No Iterations 2
ExecutionTime = 18.0092 s  ClockTime = 19 s

Courant Number mean: 0.302814 max: 0.589622
Time = 90s

diagonal:  Solving for rho, Initial residual = 0, Final residual = 0, No Iterations 0
DILUPBiCGStab:  Solving for Ux, Initial residual = 0.0115023, Final residual = 1.32574e-07, No Iterations 2
DILUPBiCGStab:  Solving for Uy, Initial residual = 0.0113548, Final residual = 1.71831e-07, No Iterations 2
DILUPBiCGStab:  Solving for Uz, Initial residual = 0.0115023, Final residual = 1.32574e-07, No Iterations 2
DILUPBiCGStab:  Solving for h, Initial residual = 0.0166791, Final residual = 1.79725e-07, No Iterations 2
DICPCG:  Solving for p_rgh, Initial residual = 0.0198223, Final residual = 0.000159101, No Iterations 9
diagonal:  Solving for rho, Initial residual = 0, Final residual = 0, No Iterations 0
time step continuity errors : sum local = 3.46593e-06, global = -1.57953e-06, cumulative = 0.00127787
DICPCG:  Solving for p_rgh, Initial residual = 0.00565924, Final residual = 9.26264e-09, No Iterations 49
diagonal:  Solving for rho, Initial residual = 0, Final residual = 0, No Iterations 0
time step continuity errors : sum local = 9.47448e-10, global = 4.16046e-10, cumulative = 0.00127787
DILUPBiCGStab:  Solving for epsilon, Initial residual = 0.0499333, Final residual = 1.91476e-07, No Iterations 2
DILUPBiCGStab:  Solving for k, Initial residual = 0.0615909, Final residual = 4.37236e-07, No Iterations 2
ExecutionTime = 18.3743 s  ClockTime = 19 s

Courant Number mean: 0.296182 max: 0.576491
Time = 92s

diagonal:  Solving for rho, Initial residual = 0, Final residual = 0, No Iterations 0
DILUPBiCGStab:  Solving for Ux, Initial residual = 0.0113347, Final residual = 1.17438e-07, No Iterations 2
DILUPBiCGStab:  Solving for Uy, Initial residual = 0.0111948, Final residual = 1.52937e-07, No Iterations 2
DILUPBiCGStab:  Solving for Uz, Initial residual = 0.0113347, Final residual = 1.17438e-07, No Iterations 2
DILUPBiCGStab:  Solving for h, Initial residual = 0.0164317, Final residual = 1.59577e-07, No Iterations 2
DICPCG:  Solving for p_rgh, Initial residual = 0.0191787, Final residual = 0.000156307, No Iterations 9
diagonal:  Solving for rho, Initial residual = 0, Final residual = 0, No Iterations 0
time step continuity errors : sum local = 3.34094e-06, global = -1.54861e-06, cumulative = 0.00127632
DICPCG:  Solving for p_rgh, Initial residual = 0.00538751, Final residual = 8.58505e-09, No Iterations 50
diagonal:  Solving for rho, Initial residual = 0, Final residual = 0, No Iterations 0
time step continuity errors : sum local = 9.17053e-10, global = 4.07606e-10, cumulative = 0.00127632
DILUPBiCGStab:  Solving for epsilon, Initial residual = 0.049279, Final residual = 1.71762e-07, No Iterations 2
DILUPBiCGStab:  Solving for k, Initial residual = 0.060538, Final residual = 3.89965e-07, No Iterations 2
ExecutionTime = 18.7473 s  ClockTime = 20 s

Courant Number mean: 0.289782 max: 0.563908
Time = 94s

diagonal:  Solving for rho, Initial residual = 0, Final residual = 0, No Iterations 0
DILUPBiCGStab:  Solving for Ux, Initial residual = 0.0111779, Final residual = 1.0429e-07, No Iterations 2
DILUPBiCGStab:  Solving for Uy, Initial residual = 0.0110456, Final residual = 1.36426e-07, No Iterations 2
DILUPBiCGStab:  Solving for Uz, Initial residual = 0.0111779, Final residual = 1.0429e-07, No Iterations 2
DILUPBiCGStab:  Solving for h, Initial residual = 0.0161903, Final residual = 1.41923e-07, No Iterations 2
DICPCG:  Solving for p_rgh, Initial residual = 0.0185474, Final residual = 0.000153578, No Iterations 9
diagonal:  Solving for rho, Initial residual = 0, Final residual = 0, No Iterations 0
time step continuity errors : sum local = 3.22245e-06, global = -1.51888e-06, cumulative = 0.0012748
DICPCG:  Solving for p_rgh, Initial residual = 0.0051263, Final residual = 8.06153e-09, No Iterations 49
diagonal:  Solving for rho, Initial residual = 0, Final residual = 0, No Iterations 0
time step continuity errors : sum local = 8.77149e-10, global = 4.00054e-10, cumulative = 0.0012748
DILUPBiCGStab:  Solving for epsilon, Initial residual = 0.0486501, Final residual = 1.54307e-07, No Iterations 2
DILUPBiCGStab:  Solving for k, Initial residual = 0.0595194, Final residual = 3.48289e-07, No Iterations 2
ExecutionTime = 19.1197 s  ClockTime = 20 s

Courant Number mean: 0.283605 max: 0.551836
Time = 96s

diagonal:  Solving for rho, Initial residual = 0, Final residual = 0, No Iterations 0
DILUPBiCGStab:  Solving for Ux, Initial residual = 0.0110316, Final residual = 9.28306e-08, No Iterations 2
DILUPBiCGStab:  Solving for Uy, Initial residual = 0.0109072, Final residual = 1.21964e-07, No Iterations 2
DILUPBiCGStab:  Solving for Uz, Initial residual = 0.0110316, Final residual = 9.28306e-08, No Iterations 2
DILUPBiCGStab:  Solving for h, Initial residual = 0.0159546, Final residual = 1.2638e-07, No Iterations 2
DICPCG:  Solving for p_rgh, Initial residual = 0.0180185, Final residual = 0.000152437, No Iterations 9
diagonal:  Solving for rho, Initial residual = 0, Final residual = 0, No Iterations 0
time step continuity errors : sum local = 3.14175e-06, global = -1.49028e-06, cumulative = 0.00127331
DICPCG:  Solving for p_rgh, Initial residual = 0.00487963, Final residual = 7.87352e-09, No Iterations 53
diagonal:  Solving for rho, Initial residual = 0, Final residual = 0, No Iterations 0
time step continuity errors : sum local = 8.62202e-10, global = 3.92121e-10, cumulative = 0.00127331
DILUPBiCGStab:  Solving for epsilon, Initial residual = 0.0480446, Final residual = 1.3883e-07, No Iterations 2
DILUPBiCGStab:  Solving for k, Initial residual = 0.0585324, Final residual = 3.11491e-07, No Iterations 2
ExecutionTime = 19.4909 s  ClockTime = 20 s

Courant Number mean: 0.277637 max: 0.540244
Time = 98s

diagonal:  Solving for rho, Initial residual = 0, Final residual = 0, No Iterations 0
DILUPBiCGStab:  Solving for Ux, Initial residual = 0.0108956, Final residual = 8.28441e-08, No Iterations 2
DILUPBiCGStab:  Solving for Uy, Initial residual = 0.0107776, Final residual = 1.09247e-07, No Iterations 2
DILUPBiCGStab:  Solving for Uz, Initial residual = 0.0108956, Final residual = 8.2844e-08, No Iterations 2
DILUPBiCGStab:  Solving for h, Initial residual = 0.0157224, Final residual = 1.12718e-07, No Iterations 2
DICPCG:  Solving for p_rgh, Initial residual = 0.0174845, Final residual = 0.0001496, No Iterations 9
diagonal:  Solving for rho, Initial residual = 0, Final residual = 0, No Iterations 0
time step continuity errors : sum local = 3.03014e-06, global = -1.46271e-06, cumulative = 0.00127185
DICPCG:  Solving for p_rgh, Initial residual = 0.00465555, Final residual = 9.89412e-09, No Iterations 49
diagonal:  Solving for rho, Initial residual = 0, Final residual = 0, No Iterations 0
time step continuity errors : sum local = 8.35122e-10, global = 3.85016e-10, cumulative = 0.00127185
DILUPBiCGStab:  Solving for epsilon, Initial residual = 0.0474621, Final residual = 1.25087e-07, No Iterations 2
DILUPBiCGStab:  Solving for k, Initial residual = 0.0575754, Final residual = 2.78975e-07, No Iterations 2
ExecutionTime = 19.8551 s  ClockTime = 21 s

Courant Number mean: 0.271864 max: 0.5291
Time = 100s

diagonal:  Solving for rho, Initial residual = 0, Final residual = 0, No Iterations 0
DILUPBiCGStab:  Solving for Ux, Initial residual = 0.0107688, Final residual = 7.40687e-08, No Iterations 2
DILUPBiCGStab:  Solving for Uy, Initial residual = 0.0106563, Final residual = 9.8079e-08, No Iterations 2
DILUPBiCGStab:  Solving for Uz, Initial residual = 0.0107688, Final residual = 7.40685e-08, No Iterations 2
DILUPBiCGStab:  Solving for h, Initial residual = 0.0154947, Final residual = 1.00677e-07, No Iterations 2
DICPCG:  Solving for p_rgh, Initial residual = 0.0169616, Final residual = 0.000148299, No Iterations 9
diagonal:  Solving for rho, Initial residual = 0, Final residual = 0, No Iterations 0
time step continuity errors : sum local = 2.95335e-06, global = -1.43615e-06, cumulative = 0.00127041
DICPCG:  Solving for p_rgh, Initial residual = 0.00444, Final residual = 7.09913e-09, No Iterations 53
diagonal:  Solving for rho, Initial residual = 0, Final residual = 0, No Iterations 0
time step continuity errors : sum local = 8.06486e-10, global = 3.77751e-10, cumulative = 0.00127041
DILUPBiCGStab:  Solving for epsilon, Initial residual = 0.0469011, Final residual = 1.12859e-07, No Iterations 2
DILUPBiCGStab:  Solving for k, Initial residual = 0.0566481, Final residual = 2.50183e-07, No Iterations 2
ExecutionTime = 20.2269 s  ClockTime = 21 s

Courant Number mean: 0.266275 max: 0.518375
Time = 102s

diagonal:  Solving for rho, Initial residual = 0, Final residual = 0, No Iterations 0
DILUPBiCGStab:  Solving for Ux, Initial residual = 0.0106515, Final residual = 6.638e-08, No Iterations 2
DILUPBiCGStab:  Solving for Uy, Initial residual = 0.0105425, Final residual = 8.81971e-08, No Iterations 2
DILUPBiCGStab:  Solving for Uz, Initial residual = 0.0106515, Final residual = 6.638e-08, No Iterations 2
DILUPBiCGStab:  Solving for h, Initial residual = 0.0152703, Final residual = 9.00439e-08, No Iterations 2
DICPCG:  Solving for p_rgh, Initial residual = 0.0164151, Final residual = 0.000145822, No Iterations 9
diagonal:  Solving for rho, Initial residual = 0, Final residual = 0, No Iterations 0
time step continuity errors : sum local = 2.85646e-06, global = -1.41052e-06, cumulative = 0.001269
DICPCG:  Solving for p_rgh, Initial residual = 0.0042387, Final residual = 6.94874e-09, No Iterations 53
diagonal:  Solving for rho, Initial residual = 0, Final residual = 0, No Iterations 0
time step continuity errors : sum local = 7.78096e-10, global = 3.70521e-10, cumulative = 0.001269
DILUPBiCGStab:  Solving for epsilon, Initial residual = 0.0463595, Final residual = 1.0196e-07, No Iterations 2
DILUPBiCGStab:  Solving for k, Initial residual = 0.0557487, Final residual = 2.24655e-07, No Iterations 2
ExecutionTime = 20.5984 s  ClockTime = 22 s

Courant Number mean: 0.260859 max: 0.508045
Time = 104s

diagonal:  Solving for rho, Initial residual = 0, Final residual = 0, No Iterations 0
DILUPBiCGStab:  Solving for Ux, Initial residual = 0.0105419, Final residual = 5.96359e-08, No Iterations 2
DILUPBiCGStab:  Solving for Uy, Initial residual = 0.0104367, Final residual = 7.94703e-08, No Iterations 2
DILUPBiCGStab:  Solving for Uz, Initial residual = 0.0105419, Final residual = 5.96359e-08, No Iterations 2
DILUPBiCGStab:  Solving for h, Initial residual = 0.01505, Final residual = 8.06337e-08, No Iterations 2
DICPCG:  Solving for p_rgh, Initial residual = 0.0159282, Final residual = 0.000144364, No Iterations 9
diagonal:  Solving for rho, Initial residual = 0, Final residual = 0, No Iterations 0
time step continuity errors : sum local = 2.78268e-06, global = -1.38581e-06, cumulative = 0.00126762
DICPCG:  Solving for p_rgh, Initial residual = 0.00405144, Final residual = 7.98961e-09, No Iterations 49
diagonal:  Solving for rho, Initial residual = 0, Final residual = 0, No Iterations 0
time step continuity errors : sum local = 7.60506e-10, global = 3.6434e-10, cumulative = 0.00126762
DILUPBiCGStab:  Solving for epsilon, Initial residual = 0.0458358, Final residual = 9.22297e-08, No Iterations 2
DILUPBiCGStab:  Solving for k, Initial residual = 0.0548757, Final residual = 2.02011e-07, No Iterations 2
ExecutionTime = 20.9605 s  ClockTime = 22 s

Courant Number mean: 0.255607 max: 0.498084
Time = 106s

diagonal:  Solving for rho, Initial residual = 0, Final residual = 0, No Iterations 0
DILUPBiCGStab:  Solving for Ux, Initial residual = 0.0104406, Final residual = 5.36799e-08, No Iterations 2
DILUPBiCGStab:  Solving for Uy, Initial residual = 0.0103375, Final residual = 7.17354e-08, No Iterations 2
DILUPBiCGStab:  Solving for Uz, Initial residual = 0.0104406, Final residual = 5.36798e-08, No Iterations 2
DILUPBiCGStab:  Solving for h, Initial residual = 0.0148334, Final residual = 7.22902e-08, No Iterations 2
DICPCG:  Solving for p_rgh, Initial residual = 0.0154507, Final residual = 0.000142994, No Iterations 9
diagonal:  Solving for rho, Initial residual = 0, Final residual = 0, No Iterations 0
time step continuity errors : sum local = 2.71335e-06, global = -1.36195e-06, cumulative = 0.00126626
DICPCG:  Solving for p_rgh, Initial residual = 0.00387272, Final residual = 8.68393e-09, No Iterations 49
diagonal:  Solving for rho, Initial residual = 0, Final residual = 0, No Iterations 0
time step continuity errors : sum local = 7.4493e-10, global = 3.58393e-10, cumulative = 0.00126626
DILUPBiCGStab:  Solving for epsilon, Initial residual = 0.0453294, Final residual = 8.35325e-08, No Iterations 2
DILUPBiCGStab:  Solving for k, Initial residual = 0.054028, Final residual = 1.81885e-07, No Iterations 2
ExecutionTime = 21.3295 s  ClockTime = 22 s

Courant Number mean: 0.250511 max: 0.488471
Time = 108s

diagonal:  Solving for rho, Initial residual = 0, Final residual = 0, No Iterations 0
DILUPBiCGStab:  Solving for Ux, Initial residual = 0.0103474, Final residual = 4.84058e-08, No Iterations 2
DILUPBiCGStab:  Solving for Uy, Initial residual = 0.0102446, Final residual = 6.48607e-08, No Iterations 2
DILUPBiCGStab:  Solving for Uz, Initial residual = 0.0103474, Final residual = 4.84059e-08, No Iterations 2
DILUPBiCGStab:  Solving for h, Initial residual = 0.0146201, Final residual = 6.48765e-08, No Iterations 2
DICPCG:  Solving for p_rgh, Initial residual = 0.0150005, Final residual = 0.000141379, No Iterations 9
diagonal:  Solving for rho, Initial residual = 0, Final residual = 0, No Iterations 0
time step continuity errors : sum local = 2.642e-06, global = -1.33888e-06, cumulative = 0.00126492
DICPCG:  Solving for p_rgh, Initial residual = 0.00370474, Final residual = 6.46892e-09, No Iterations 49
diagonal:  Solving for rho, Initial residual = 0, Final residual = 0, No Iterations 0
time step continuity errors : sum local = 7.19291e-10, global = 3.52199e-10, cumulative = 0.00126492
DILUPBiCGStab:  Solving for epsilon, Initial residual = 0.04484, Final residual = 7.57454e-08, No Iterations 2
DILUPBiCGStab:  Solving for k, Initial residual = 0.053204, Final residual = 1.63959e-07, No Iterations 2
ExecutionTime = 21.7004 s  ClockTime = 23 s

Courant Number mean: 0.245561 max: 0.479795
Time = 110s

diagonal:  Solving for rho, Initial residual = 0, Final residual = 0, No Iterations 0
DILUPBiCGStab:  Solving for Ux, Initial residual = 0.0102619, Final residual = 4.37328e-08, No Iterations 2
DILUPBiCGStab:  Solving for Uy, Initial residual = 0.0101583, Final residual = 5.87446e-08, No Iterations 2
DILUPBiCGStab:  Solving for Uz, Initial residual = 0.0102619, Final residual = 4.37328e-08, No Iterations 2
DILUPBiCGStab:  Solving for h, Initial residual = 0.0144102, Final residual = 5.82862e-08, No Iterations 2
DICPCG:  Solving for p_rgh, Initial residual = 0.0145805, Final residual = 0.000140287, No Iterations 9
diagonal:  Solving for rho, Initial residual = 0, Final residual = 0, No Iterations 0
time step continuity errors : sum local = 2.58271e-06, global = -1.31658e-06, cumulative = 0.0012636
DICPCG:  Solving for p_rgh, Initial residual = 0.00354349, Final residual = 6.26436e-09, No Iterations 53
diagonal:  Solving for rho, Initial residual = 0, Final residual = 0, No Iterations 0
time step continuity errors : sum local = 7.09337e-10, global = 3.46164e-10, cumulative = 0.0012636
DILUPBiCGStab:  Solving for epsilon, Initial residual = 0.0443664, Final residual = 6.87653e-08, No Iterations 2
[...]

diagonal:  Solving for rho, Initial residual = 0, Final residual = 0, No Iterations 0
DILUPBiCGStab:  Solving for Ux, Initial residual = 0.00601918, Final residual = 1.79803e-09, No Iterations 1
DILUPBiCGStab:  Solving for Uy, Initial residual = 0.0044997, Final residual = 2.29801e-09, No Iterations 1
DILUPBiCGStab:  Solving for Uz, Initial residual = 0.00601919, Final residual = 1.79803e-09, No Iterations 1
DILUPBiCGStab:  Solving for h, Initial residual = 0.00312717, Final residual = 1.24217e-09, No Iterations 1
DICPCG:  Solving for p_rgh, Initial residual = 0.00224887, Final residual = 1.81048e-05, No Iterations 34
diagonal:  Solving for rho, Initial residual = 0, Final residual = 0, No Iterations 0
time step continuity errors : sum local = 2.18503e-07, global = 5.27854e-11, cumulative = 0.00124179
DICPCG:  Solving for p_rgh, Initial residual = 5.44734e-05, Final residual = 5.50771e-09, No Iterations 46
diagonal:  Solving for rho, Initial residual = 0, Final residual = 0, No Iterations 0
time step continuity errors : sum local = 9.33493e-11, global = 5.15117e-12, cumulative = 0.00124179
DILUPBiCGStab:  Solving for epsilon, Initial residual = 0.00260096, Final residual = 7.90375e-07, No Iterations 1
DILUPBiCGStab:  Solving for k, Initial residual = 0.00260791, Final residual = 9.40058e-10, No Iterations 1
ExecutionTime = 193.904 s  ClockTime = 204 s

Courant Number mean: 0.0222174 max: 0.120295
Time = 976s

diagonal:  Solving for rho, Initial residual = 0, Final residual = 0, No Iterations 0
DILUPBiCGStab:  Solving for Ux, Initial residual = 0.00612256, Final residual = 1.81346e-09, No Iterations 1
DILUPBiCGStab:  Solving for Uy, Initial residual = 0.00454265, Final residual = 2.31085e-09, No Iterations 1
DILUPBiCGStab:  Solving for Uz, Initial residual = 0.00612257, Final residual = 1.81347e-09, No Iterations 1
DILUPBiCGStab:  Solving for h, Initial residual = 0.00311477, Final residual = 1.22531e-09, No Iterations 1
DICPCG:  Solving for p_rgh, Initial residual = 0.00226637, Final residual = 1.73586e-05, No Iterations 34
diagonal:  Solving for rho, Initial residual = 0, Final residual = 0, No Iterations 0
time step continuity errors : sum local = 2.0951e-07, global = 5.26162e-11, cumulative = 0.00124179
DICPCG:  Solving for p_rgh, Initial residual = 5.36885e-05, Final residual = 9.81735e-09, No Iterations 24
diagonal:  Solving for rho, Initial residual = 0, Final residual = 0, No Iterations 0
time step continuity errors : sum local = 1.35838e-10, global = 5.76934e-11, cumulative = 0.00124179
DILUPBiCGStab:  Solving for epsilon, Initial residual = 0.00258076, Final residual = 7.94447e-07, No Iterations 1
DILUPBiCGStab:  Solving for k, Initial residual = 0.00260254, Final residual = 9.45743e-10, No Iterations 1
ExecutionTime = 194.253 s  ClockTime = 205 s

Courant Number mean: 0.0221272 max: 0.120382
Time = 978s

diagonal:  Solving for rho, Initial residual = 0, Final residual = 0, No Iterations 0
DILUPBiCGStab:  Solving for Ux, Initial residual = 0.00622005, Final residual = 1.83127e-09, No Iterations 1
DILUPBiCGStab:  Solving for Uy, Initial residual = 0.00458581, Final residual = 2.32245e-09, No Iterations 1
DILUPBiCGStab:  Solving for Uz, Initial residual = 0.00622005, Final residual = 1.83127e-09, No Iterations 1
DILUPBiCGStab:  Solving for h, Initial residual = 0.00310326, Final residual = 1.20834e-09, No Iterations 1
DICPCG:  Solving for p_rgh, Initial residual = 0.00222029, Final residual = 1.83829e-05, No Iterations 34
diagonal:  Solving for rho, Initial residual = 0, Final residual = 0, No Iterations 0
time step continuity errors : sum local = 2.21885e-07, global = 5.25048e-11, cumulative = 0.00124179
DICPCG:  Solving for p_rgh, Initial residual = 5.33809e-05, Final residual = 6.92988e-09, No Iterations 46
diagonal:  Solving for rho, Initial residual = 0, Final residual = 0, No Iterations 0
time step continuity errors : sum local = 1.06359e-10, global = 3.87829e-12, cumulative = 0.00124179
DILUPBiCGStab:  Solving for epsilon, Initial residual = 0.00256299, Final residual = 8.00316e-07, No Iterations 1
DILUPBiCGStab:  Solving for k, Initial residual = 0.0025976, Final residual = 9.52812e-10, No Iterations 1
ExecutionTime = 194.643 s  ClockTime = 205 s

Courant Number mean: 0.02204 max: 0.120466
Time = 980s

diagonal:  Solving for rho, Initial residual = 0, Final residual = 0, No Iterations 0
DILUPBiCGStab:  Solving for Ux, Initial residual = 0.00631203, Final residual = 1.84628e-09, No Iterations 1
DILUPBiCGStab:  Solving for Uy, Initial residual = 0.00462719, Final residual = 2.33068e-09, No Iterations 1
DILUPBiCGStab:  Solving for Uz, Initial residual = 0.00631203, Final residual = 1.84628e-09, No Iterations 1
DILUPBiCGStab:  Solving for h, Initial residual = 0.00309124, Final residual = 1.19098e-09, No Iterations 1
DICPCG:  Solving for p_rgh, Initial residual = 0.00221886, Final residual = 1.94381e-05, No Iterations 34
diagonal:  Solving for rho, Initial residual = 0, Final residual = 0, No Iterations 0
time step continuity errors : sum local = 2.34625e-07, global = 5.24071e-11, cumulative = 0.00124179
DICPCG:  Solving for p_rgh, Initial residual = 5.33701e-05, Final residual = 9.35324e-09, No Iterations 24
diagonal:  Solving for rho, Initial residual = 0, Final residual = 0, No Iterations 0
time step continuity errors : sum local = 1.34487e-10, global = 5.58982e-11, cumulative = 0.00124179
DILUPBiCGStab:  Solving for epsilon, Initial residual = 0.00254754, Final residual = 8.08487e-07, No Iterations 1
DILUPBiCGStab:  Solving for k, Initial residual = 0.0025933, Final residual = 9.59836e-10, No Iterations 1
ExecutionTime = 194.991 s  ClockTime = 205 s

Courant Number mean: 0.0219557 max: 0.120545
Time = 982s

diagonal:  Solving for rho, Initial residual = 0, Final residual = 0, No Iterations 0
DILUPBiCGStab:  Solving for Ux, Initial residual = 0.00640089, Final residual = 1.85703e-09, No Iterations 1
DILUPBiCGStab:  Solving for Uy, Initial residual = 0.00466649, Final residual = 2.3392e-09, No Iterations 1
DILUPBiCGStab:  Solving for Uz, Initial residual = 0.00640089, Final residual = 1.85703e-09, No Iterations 1
DILUPBiCGStab:  Solving for h, Initial residual = 0.00307961, Final residual = 1.17375e-09, No Iterations 1
DICPCG:  Solving for p_rgh, Initial residual = 0.00220919, Final residual = 1.75004e-05, No Iterations 34
diagonal:  Solving for rho, Initial residual = 0, Final residual = 0, No Iterations 0
time step continuity errors : sum local = 2.11239e-07, global = 5.23278e-11, cumulative = 0.00124179
DICPCG:  Solving for p_rgh, Initial residual = 5.23549e-05, Final residual = 9.58511e-09, No Iterations 24
diagonal:  Solving for rho, Initial residual = 0, Final residual = 0, No Iterations 0
time step continuity errors : sum local = 1.33587e-10, global = 5.5736e-11, cumulative = 0.00124179
DILUPBiCGStab:  Solving for epsilon, Initial residual = 0.00253479, Final residual = 8.18146e-07, No Iterations 1
DILUPBiCGStab:  Solving for k, Initial residual = 0.00258964, Final residual = 9.66365e-10, No Iterations 1
ExecutionTime = 195.341 s  ClockTime = 206 s

Courant Number mean: 0.0218737 max: 0.12062
Time = 984s

diagonal:  Solving for rho, Initial residual = 0, Final residual = 0, No Iterations 0
DILUPBiCGStab:  Solving for Ux, Initial residual = 0.00648544, Final residual = 1.86724e-09, No Iterations 1
DILUPBiCGStab:  Solving for Uy, Initial residual = 0.00470392, Final residual = 2.34469e-09, No Iterations 1
DILUPBiCGStab:  Solving for Uz, Initial residual = 0.00648544, Final residual = 1.86724e-09, No Iterations 1
DILUPBiCGStab:  Solving for h, Initial residual = 0.00306841, Final residual = 1.15645e-09, No Iterations 1
DICPCG:  Solving for p_rgh, Initial residual = 0.00219698, Final residual = 1.82599e-05, No Iterations 34
diagonal:  Solving for rho, Initial residual = 0, Final residual = 0, No Iterations 0
time step continuity errors : sum local = 2.20409e-07, global = 5.21987e-11, cumulative = 0.00124179
DICPCG:  Solving for p_rgh, Initial residual = 5.23037e-05, Final residual = 5.09399e-09, No Iterations 46
diagonal:  Solving for rho, Initial residual = 0, Final residual = 0, No Iterations 0
time step continuity errors : sum local = 9.05211e-11, global = 3.02065e-12, cumulative = 0.00124179
DILUPBiCGStab:  Solving for epsilon, Initial residual = 0.00252411, Final residual = 8.28666e-07, No Iterations 1
DILUPBiCGStab:  Solving for k, Initial residual = 0.00258675, Final residual = 9.72435e-10, No Iterations 1
ExecutionTime = 195.733 s  ClockTime = 206 s

Courant Number mean: 0.0217947 max: 0.120691
Time = 986s

diagonal:  Solving for rho, Initial residual = 0, Final residual = 0, No Iterations 0
DILUPBiCGStab:  Solving for Ux, Initial residual = 0.00657086, Final residual = 1.87489e-09, No Iterations 1
DILUPBiCGStab:  Solving for Uy, Initial residual = 0.0047332, Final residual = 2.346e-09, No Iterations 1
DILUPBiCGStab:  Solving for Uz, Initial residual = 0.00657087, Final residual = 1.87489e-09, No Iterations 1
DILUPBiCGStab:  Solving for h, Initial residual = 0.00305676, Final residual = 1.13886e-09, No Iterations 1
DICPCG:  Solving for p_rgh, Initial residual = 0.00221056, Final residual = 1.8602e-05, No Iterations 34
diagonal:  Solving for rho, Initial residual = 0, Final residual = 0, No Iterations 0
time step continuity errors : sum local = 2.24535e-07, global = 5.21476e-11, cumulative = 0.00124179
DICPCG:  Solving for p_rgh, Initial residual = 5.19649e-05, Final residual = 6.41092e-09, No Iterations 46
diagonal:  Solving for rho, Initial residual = 0, Final residual = 0, No Iterations 0
time step continuity errors : sum local = 1.02475e-10, global = 2.44835e-12, cumulative = 0.00124179
DILUPBiCGStab:  Solving for epsilon, Initial residual = 0.00251554, Final residual = 8.40527e-07, No Iterations 1
DILUPBiCGStab:  Solving for k, Initial residual = 0.00258481, Final residual = 9.7837e-10, No Iterations 1
ExecutionTime = 196.125 s  ClockTime = 207 s

Courant Number mean: 0.0217193 max: 0.120756
Time = 988s

diagonal:  Solving for rho, Initial residual = 0, Final residual = 0, No Iterations 0
DILUPBiCGStab:  Solving for Ux, Initial residual = 0.00665175, Final residual = 1.88301e-09, No Iterations 1
DILUPBiCGStab:  Solving for Uy, Initial residual = 0.00476516, Final residual = 2.34582e-09, No Iterations 1
DILUPBiCGStab:  Solving for Uz, Initial residual = 0.00665176, Final residual = 1.88302e-09, No Iterations 1
DILUPBiCGStab:  Solving for h, Initial residual = 0.00304541, Final residual = 1.12107e-09, No Iterations 1
DICPCG:  Solving for p_rgh, Initial residual = 0.00219557, Final residual = 1.72462e-05, No Iterations 34
diagonal:  Solving for rho, Initial residual = 0, Final residual = 0, No Iterations 0
time step continuity errors : sum local = 2.08168e-07, global = 5.20724e-11, cumulative = 0.00124179
DICPCG:  Solving for p_rgh, Initial residual = 5.11296e-05, Final residual = 4.46502e-09, No Iterations 46
diagonal:  Solving for rho, Initial residual = 0, Final residual = 0, No Iterations 0
time step continuity errors : sum local = 8.39986e-11, global = 2.59694e-12, cumulative = 0.00124179
DILUPBiCGStab:  Solving for epsilon, Initial residual = 0.00250742, Final residual = 8.52845e-07, No Iterations 1
DILUPBiCGStab:  Solving for k, Initial residual = 0.0025836, Final residual = 9.83788e-10, No Iterations 1
ExecutionTime = 196.515 s  ClockTime = 207 s

Courant Number mean: 0.0216502 max: 0.120816
Time = 990s

diagonal:  Solving for rho, Initial residual = 0, Final residual = 0, No Iterations 0
DILUPBiCGStab:  Solving for Ux, Initial residual = 0.00672761, Final residual = 1.88467e-09, No Iterations 1
DILUPBiCGStab:  Solving for Uy, Initial residual = 0.00479592, Final residual = 2.34347e-09, No Iterations 1
DILUPBiCGStab:  Solving for Uz, Initial residual = 0.00672762, Final residual = 1.88468e-09, No Iterations 1
DILUPBiCGStab:  Solving for h, Initial residual = 0.0030345, Final residual = 1.10316e-09, No Iterations 1
DICPCG:  Solving for p_rgh, Initial residual = 0.00220624, Final residual = 1.57925e-05, No Iterations 34
diagonal:  Solving for rho, Initial residual = 0, Final residual = 0, No Iterations 0
time step continuity errors : sum local = 1.90617e-07, global = 5.20424e-11, cumulative = 0.00124179
DICPCG:  Solving for p_rgh, Initial residual = 4.99882e-05, Final residual = 8.46797e-09, No Iterations 45
diagonal:  Solving for rho, Initial residual = 0, Final residual = 0, No Iterations 0
time step continuity errors : sum local = 1.24305e-10, global = 2.00867e-12, cumulative = 0.00124179
DILUPBiCGStab:  Solving for epsilon, Initial residual = 0.00250084, Final residual = 8.66189e-07, No Iterations 1
DILUPBiCGStab:  Solving for k, Initial residual = 0.00258304, Final residual = 9.89407e-10, No Iterations 1
ExecutionTime = 196.903 s  ClockTime = 207 s

Courant Number mean: 0.0215862 max: 0.12087
Time = 992s

diagonal:  Solving for rho, Initial residual = 0, Final residual = 0, No Iterations 0
DILUPBiCGStab:  Solving for Ux, Initial residual = 0.00680211, Final residual = 1.89082e-09, No Iterations 1
DILUPBiCGStab:  Solving for Uy, Initial residual = 0.00482921, Final residual = 2.34321e-09, No Iterations 1
DILUPBiCGStab:  Solving for Uz, Initial residual = 0.00680211, Final residual = 1.89082e-09, No Iterations 1
DILUPBiCGStab:  Solving for h, Initial residual = 0.00302377, Final residual = 1.08546e-09, No Iterations 1
DICPCG:  Solving for p_rgh, Initial residual = 0.00222503, Final residual = 1.65424e-05, No Iterations 34
diagonal:  Solving for rho, Initial residual = 0, Final residual = 0, No Iterations 0
time step continuity errors : sum local = 1.99667e-07, global = 5.19388e-11, cumulative = 0.00124179
DICPCG:  Solving for p_rgh, Initial residual = 5.0461e-05, Final residual = 9.56209e-09, No Iterations 23
diagonal:  Solving for rho, Initial residual = 0, Final residual = 0, No Iterations 0
time step continuity errors : sum local = 1.34697e-10, global = 5.29691e-11, cumulative = 0.00124179
DILUPBiCGStab:  Solving for epsilon, Initial residual = 0.00249664, Final residual = 8.79955e-07, No Iterations 1
DILUPBiCGStab:  Solving for k, Initial residual = 0.00258258, Final residual = 9.94536e-10, No Iterations 1
ExecutionTime = 197.25 s  ClockTime = 208 s

Courant Number mean: 0.0215267 max: 0.120924
Time = 994s

diagonal:  Solving for rho, Initial residual = 0, Final residual = 0, No Iterations 0
DILUPBiCGStab:  Solving for Ux, Initial residual = 0.00686331, Final residual = 1.88833e-09, No Iterations 1
DILUPBiCGStab:  Solving for Uy, Initial residual = 0.00486035, Final residual = 2.34808e-09, No Iterations 1
DILUPBiCGStab:  Solving for Uz, Initial residual = 0.0068633, Final residual = 1.88833e-09, No Iterations 1
DILUPBiCGStab:  Solving for h, Initial residual = 0.00301276, Final residual = 1.06788e-09, No Iterations 1
DICPCG:  Solving for p_rgh, Initial residual = 0.00219251, Final residual = 1.41819e-05, No Iterations 34
diagonal:  Solving for rho, Initial residual = 0, Final residual = 0, No Iterations 0
time step continuity errors : sum local = 1.71175e-07, global = 5.18725e-11, cumulative = 0.00124179
DICPCG:  Solving for p_rgh, Initial residual = 4.86653e-05, Final residual = 9.4218e-09, No Iterations 19
diagonal:  Solving for rho, Initial residual = 0, Final residual = 0, No Iterations 0
time step continuity errors : sum local = 1.28653e-10, global = 5.3574e-11, cumulative = 0.00124179
DILUPBiCGStab:  Solving for epsilon, Initial residual = 0.00249443, Final residual = 8.94822e-07, No Iterations 1
DILUPBiCGStab:  Solving for k, Initial residual = 0.00258206, Final residual = 9.99162e-10, No Iterations 1
ExecutionTime = 197.592 s  ClockTime = 208 s

Courant Number mean: 0.0214722 max: 0.12098
Time = 996s

diagonal:  Solving for rho, Initial residual = 0, Final residual = 0, No Iterations 0
DILUPBiCGStab:  Solving for Ux, Initial residual = 0.0069278, Final residual = 1.88995e-09, No Iterations 1
DILUPBiCGStab:  Solving for Uy, Initial residual = 0.00488311, Final residual = 2.3436e-09, No Iterations 1
DILUPBiCGStab:  Solving for Uz, Initial residual = 0.0069278, Final residual = 1.88996e-09, No Iterations 1
DILUPBiCGStab:  Solving for h, Initial residual = 0.00300244, Final residual = 1.05037e-09, No Iterations 1
DICPCG:  Solving for p_rgh, Initial residual = 0.00218786, Final residual = 1.62027e-05, No Iterations 34
diagonal:  Solving for rho, Initial residual = 0, Final residual = 0, No Iterations 0
time step continuity errors : sum local = 1.95566e-07, global = 5.16747e-11, cumulative = 0.00124179
DICPCG:  Solving for p_rgh, Initial residual = 4.91858e-05, Final residual = 9.27622e-09, No Iterations 23
diagonal:  Solving for rho, Initial residual = 0, Final residual = 0, No Iterations 0
time step continuity errors : sum local = 1.31162e-10, global = 5.31328e-11, cumulative = 0.00124179
DILUPBiCGStab:  Solving for epsilon, Initial residual = 0.00249374, Final residual = 9.1083e-07, No Iterations 1
DILUPBiCGStab:  Solving for k, Initial residual = 0.00258164, Final residual = 1.00361e-09, No Iterations 1
ExecutionTime = 197.939 s  ClockTime = 208 s

Courant Number mean: 0.0214223 max: 0.121033
Time = 998s

diagonal:  Solving for rho, Initial residual = 0, Final residual = 0, No Iterations 0
DILUPBiCGStab:  Solving for Ux, Initial residual = 0.00698732, Final residual = 1.88982e-09, No Iterations 1
DILUPBiCGStab:  Solving for Uy, Initial residual = 0.00490594, Final residual = 2.33724e-09, No Iterations 1
DILUPBiCGStab:  Solving for Uz, Initial residual = 0.00698732, Final residual = 1.88982e-09, No Iterations 1
DILUPBiCGStab:  Solving for h, Initial residual = 0.00299256, Final residual = 1.03318e-09, No Iterations 1
DICPCG:  Solving for p_rgh, Initial residual = 0.00218589, Final residual = 1.52363e-05, No Iterations 34
diagonal:  Solving for rho, Initial residual = 0, Final residual = 0, No Iterations 0
time step continuity errors : sum local = 1.839e-07, global = 5.1715e-11, cumulative = 0.00124179
DICPCG:  Solving for p_rgh, Initial residual = 4.8216e-05, Final residual = 7.2546e-09, No Iterations 41
diagonal:  Solving for rho, Initial residual = 0, Final residual = 0, No Iterations 0
time step continuity errors : sum local = 1.06686e-10, global = 1.02807e-12, cumulative = 0.00124179
DILUPBiCGStab:  Solving for epsilon, Initial residual = 0.00249474, Final residual = 9.27463e-07, No Iterations 1
DILUPBiCGStab:  Solving for k, Initial residual = 0.00258156, Final residual = 1.00907e-09, No Iterations 1
ExecutionTime = 198.322 s  ClockTime = 209 s

Courant Number mean: 0.0213785 max: 0.121091
Time = 1000s

diagonal:  Solving for rho, Initial residual = 0, Final residual = 0, No Iterations 0
DILUPBiCGStab:  Solving for Ux, Initial residual = 0.00704771, Final residual = 1.89173e-09, No Iterations 1
DILUPBiCGStab:  Solving for Uy, Initial residual = 0.00491919, Final residual = 2.32488e-09, No Iterations 1
DILUPBiCGStab:  Solving for Uz, Initial residual = 0.00704776, Final residual = 1.89175e-09, No Iterations 1
DILUPBiCGStab:  Solving for h, Initial residual = 0.00298281, Final residual = 1.01655e-09, No Iterations 1
DICPCG:  Solving for p_rgh, Initial residual = 0.00224323, Final residual = 1.55772e-05, No Iterations 34
diagonal:  Solving for rho, Initial residual = 0, Final residual = 0, No Iterations 0
time step continuity errors : sum local = 1.88013e-07, global = 5.16307e-11, cumulative = 0.00124179
DICPCG:  Solving for p_rgh, Initial residual = 4.88923e-05, Final residual = 4.68724e-09, No Iterations 46
diagonal:  Solving for rho, Initial residual = 0, Final residual = 0, No Iterations 0
time step continuity errors : sum local = 8.15925e-11, global = 6.62233e-13, cumulative = 0.00124179
DILUPBiCGStab:  Solving for epsilon, Initial residual = 0.00249628, Final residual = 9.44643e-07, No Iterations 1
DILUPBiCGStab:  Solving for k, Initial residual = 0.00258185, Final residual = 1.01458e-09, No Iterations 1
ExecutionTime = 199.088 s  ClockTime = 210 s

End

